# created with PyMOL 3.1.3.1
@<TRIPOS>MOLECULE
mobile
15 16 1                 
SMALL
USER_CHARGES
@<TRIPOS>ATOM
1	 O19	3.955	-14.646	-7.903	O.3	1	LIG1	0.000	
2	 S20	0.333	-19.658	-9.439	S.3	1	LIG1	0.000	
3	 C21	-2.095	-23.150	-7.816	C.2	1	LIG1	0.000	
4	 C22	-2.685	-21.903	-8.037	C.2	1	LIG1	0.000	
5	 C23	-0.731	-23.295	-8.134	C.2	1	LIG1	0.000	
6	 C24	-1.950	-20.844	-8.538	C.2	1	LIG1	0.000	
7	 C25	-0.001	-22.236	-8.630	C.2	1	LIG1	0.000	
8	 C26	-0.633	-21.020	-8.844	C.2	1	LIG1	0.000	
9	 C27	3.719	-15.340	-9.127	C.3	1	LIG1	0.000	
10	 C28	3.786	-15.457	-6.751	C.3	1	LIG1	0.000	
11	 C29	1.090	-18.878	-7.970	C.3	1	LIG1	0.000	
12	 C30	2.347	-15.923	-9.120	C.3	1	LIG1	0.000	
13	 C31	2.427	-16.063	-6.720	C.3	1	LIG1	0.000	
14	 C32	0.852	-17.426	-7.958	C.3	1	LIG1	0.000	
15	 N33	2.182	-16.758	-7.966	N.3	1	LIG1	0.000	
@<TRIPOS>BOND
1 1 9 1
2 1 10 1
3 2 8 1
4 2 11 1
5 3 4 ar
6 3 5 ar
7 4 6 ar
8 5 7 ar
9 6 8 ar
10 7 8 ar
11 9 12 1
12 10 13 1
13 11 14 1
14 12 15 1
15 13 15 1
16 14 15 1
@<TRIPOS>SUBSTRUCTURE
1	LIG1	1	GROUP	1 C	LIG
