# created with PyMOL 3.1.3.1
@<TRIPOS>MOLECULE
predicted
38 43 1                 
SMALL
USER_CHARGES
@<TRIPOS>ATOM
1	CL26	-12.970	-3.089	-21.698	Cl	1	LIG1	0.000	
2	 O23	-10.356	2.447	-24.236	O.2	1	LIG1	0.000	
3	 O24	-5.532	2.322	-24.296	O.2	1	LIG1	0.000	
4	 O25	-8.326	0.700	-21.355	O.2	1	LIG1	0.000	
5	 N27	-6.533	-6.413	-23.913	N.2	1	LIG1	0.000	
6	 N28	-7.552	-5.543	-23.880	N.2	1	LIG1	0.000	
7	 N29	-5.761	-4.451	-24.503	N.2	1	LIG1	0.000	
8	 N30	-6.015	-0.563	-17.834	N.2	1	LIG1	0.000	
9	 N31	-5.423	-5.746	-24.297	N.2	1	LIG1	0.000	
10	 C32	-9.847	1.319	-24.080	C.2	1	LIG1	0.000	
11	 C33	-6.642	2.615	-24.041	C.2	1	LIG1	0.000	
12	 C34	-7.942	-0.360	-21.810	C.2	1	LIG1	0.000	
13	 C35	-7.054	-4.375	-24.230	C.2	1	LIG1	0.000	
14	 C36	-6.683	-0.969	-18.893	C.2	1	LIG1	0.000	
15	 C37	-12.704	-0.724	-22.868	C.2	1	LIG1	0.000	
16	 C38	-11.994	0.306	-23.397	C.2	1	LIG1	0.000	
17	 C39	-10.665	-1.950	-22.440	C.2	1	LIG1	0.000	
18	 C40	-2.612	1.269	-20.692	C.2	1	LIG1	0.000	
19	 C41	-3.268	0.844	-21.806	C.2	1	LIG1	0.000	
20	 C42	-12.045	-1.856	-22.364	C.2	1	LIG1	0.000	
21	 C43	-10.611	0.224	-23.485	C.2	1	LIG1	0.000	
22	 C44	-9.953	-0.948	-23.056	C.2	1	LIG1	0.000	
23	 C45	-4.857	0.079	-17.987	C.2	1	LIG1	0.000	
24	 C46	-3.135	1.023	-19.428	C.2	1	LIG1	0.000	
25	 C47	-4.442	0.178	-21.679	C.2	1	LIG1	0.000	
26	 C48	-6.222	-0.735	-20.193	C.2	1	LIG1	0.000	
27	 C49	-4.317	0.354	-19.259	C.2	1	LIG1	0.000	
28	 C50	-4.995	-0.064	-20.407	C.2	1	LIG1	0.000	
29	 N51	-6.969	3.241	-22.893	N.pl3	1	LIG1	0.000	
30	 N52	-6.976	-1.120	-21.277	N.pl3	1	LIG1	0.000	
31	 N53	-8.511	1.135	-24.378	N.pl3	1	LIG1	0.000	
32	 C54	-5.968	3.667	-21.983	C.3	1	LIG1	0.000	
33	 C55	-7.764	2.219	-24.956	C.3	1	LIG1	0.000	
34	 C56	-7.847	-3.058	-24.284	C.3	1	LIG1	0.000	
35	 C57	-6.833	-2.357	-21.962	C.3	1	LIG1	0.000	
36	 C58	-7.910	-0.185	-24.309	C.3	1	LIG1	0.000	
37	 C59	-7.881	-2.369	-23.029	C.3	1	LIG1	0.000	
38	 C60	-8.460	-0.980	-23.083	C.3	1	LIG1	0.000	
@<TRIPOS>BOND
1 5 9 ar
2 5 6 ar
3 8 23 ar
4 7 9 ar
5 2 10 2
6 3 11 2
7 11 33 1
8 4 12 2
9 12 30 1
10 6 13 ar
11 7 13 ar
12 8 14 ar
13 15 16 ar
14 16 21 ar
15 17 20 ar
16 18 19 ar
17 19 25 ar
18 1 20 1
19 15 20 ar
20 10 21 1
21 17 22 ar
22 21 22 ar
23 23 27 ar
24 18 24 ar
25 25 28 ar
26 14 26 ar
27 26 28 ar
28 24 27 ar
29 27 28 ar
30 11 29 1
31 26 30 1
32 30 35 1
33 10 31 1
34 31 36 1
35 29 32 1
36 31 33 1
37 13 34 1
38 35 37 1
39 36 38 1
40 34 37 1
41 12 38 1
42 22 38 1
43 37 38 1
@<TRIPOS>SUBSTRUCTURE
1	LIG1	1	GROUP	1 C	LIG
