# created with PyMOL 3.1.3.1
@<TRIPOS>MOLECULE
predicted
26 29 1                 
SMALL
USER_CHARGES
@<TRIPOS>ATOM
1	CL19	-13.774	-3.371	-22.343	Cl	1	LIG1	0.000	
2	 O17	-9.019	0.658	-24.686	O.2	1	LIG1	0.000	
3	 O18	-8.755	-0.838	-21.062	O.2	1	LIG1	0.000	
4	 N20	-6.543	-0.835	-17.464	N.2	1	LIG1	0.000	
5	 C21	-9.009	-0.478	-24.264	C.2	1	LIG1	0.000	
6	 C22	-8.197	-1.834	-21.401	C.2	1	LIG1	0.000	
7	 C23	-7.063	-1.520	-18.464	C.2	1	LIG1	0.000	
8	 C24	-12.584	-1.392	-23.621	C.2	1	LIG1	0.000	
9	 C25	-11.494	-0.708	-24.070	C.2	1	LIG1	0.000	
10	 C26	-11.157	-2.939	-22.499	C.2	1	LIG1	0.000	
11	 C27	-3.267	0.892	-20.429	C.2	1	LIG1	0.000	
12	 C28	-3.804	0.191	-21.459	C.2	1	LIG1	0.000	
13	 C29	-12.416	-2.509	-22.842	C.2	1	LIG1	0.000	
14	 C30	-10.215	-1.135	-23.753	C.2	1	LIG1	0.000	
15	 C31	-10.037	-2.296	-22.990	C.2	1	LIG1	0.000	
16	 C32	-5.478	-0.088	-17.651	C.2	1	LIG1	0.000	
17	 C33	-3.804	0.822	-19.171	C.2	1	LIG1	0.000	
18	 C34	-4.864	-0.598	-21.265	C.2	1	LIG1	0.000	
19	 C35	-6.552	-1.501	-19.733	C.2	1	LIG1	0.000	
20	 C36	-4.895	0.021	-18.931	C.2	1	LIG1	0.000	
21	 C37	-5.443	-0.696	-19.990	C.2	1	LIG1	0.000	
22	 N38	-7.114	-2.254	-20.774	N.pl3	1	LIG1	0.000	
23	 N39	-7.807	-1.151	-24.214	N.pl3	1	LIG1	0.000	
24	 C40	-6.643	-0.555	-24.756	C.3	1	LIG1	0.000	
25	 C41	-7.739	-2.529	-23.717	C.3	1	LIG1	0.000	
26	 C42	-8.672	-2.725	-22.556	C.3	1	LIG1	0.000	
@<TRIPOS>BOND
1 4 16 ar
2 2 5 2
3 3 6 2
4 6 22 1
5 4 7 ar
6 8 9 ar
7 9 14 ar
8 10 13 ar
9 11 12 ar
10 12 18 ar
11 1 13 1
12 8 13 ar
13 5 14 1
14 10 15 ar
15 14 15 ar
16 16 20 ar
17 11 17 ar
18 18 21 ar
19 7 19 ar
20 19 21 ar
21 17 20 ar
22 20 21 ar
23 19 22 1
24 5 23 1
25 23 25 1
26 23 24 1
27 25 26 1
28 6 26 1
29 15 26 1
@<TRIPOS>SUBSTRUCTURE
1	LIG1	1	GROUP	1 C	LIG
