# created with PyMOL 3.1.3.1
@<TRIPOS>MOLECULE
predicted
22 25 1                 
SMALL
USER_CHARGES
@<TRIPOS>ATOM
1	 O17	8.350	1.248	20.567	O.2	1	LIG1	0.000	
2	 N18	6.020	0.166	17.192	N.2	1	LIG1	0.000	
3	 S19	12.944	-1.718	22.943	S.2	1	LIG1	0.000	
4	 C20	8.223	0.130	21.080	C.2	1	LIG1	0.000	
5	 C21	6.722	-0.352	18.198	C.2	1	LIG1	0.000	
6	 C22	13.393	-0.228	23.342	C.2	1	LIG1	0.000	
7	 C23	11.323	-1.342	22.823	C.2	1	LIG1	0.000	
8	 C24	12.302	0.613	23.341	C.2	1	LIG1	0.000	
9	 C25	2.841	1.927	20.251	C.2	1	LIG1	0.000	
10	 C26	3.535	1.430	21.295	C.2	1	LIG1	0.000	
11	 C27	11.128	-0.009	23.007	C.2	1	LIG1	0.000	
12	 C28	4.910	0.810	17.409	C.2	1	LIG1	0.000	
13	 C29	3.280	1.740	18.966	C.2	1	LIG1	0.000	
14	 C30	4.691	0.745	21.098	C.2	1	LIG1	0.000	
15	 C31	6.326	-0.199	19.490	C.2	1	LIG1	0.000	
16	 C32	4.427	1.040	18.705	C.2	1	LIG1	0.000	
17	 C33	5.156	0.524	19.796	C.2	1	LIG1	0.000	
18	 N34	8.940	-0.280	22.161	N.pl3	1	LIG1	0.000	
19	 C35	7.190	-0.798	20.565	C.3	1	LIG1	0.000	
20	 C36	9.756	0.603	22.870	C.3	1	LIG1	0.000	
21	 C37	10.246	-2.221	22.394	C.3	1	LIG1	0.000	
22	 C38	8.919	-1.619	22.633	C.3	1	LIG1	0.000	
@<TRIPOS>BOND
1 1 4 2
2 2 12 ar
3 3 6 ar
4 4 18 1
5 4 19 1
6 2 5 ar
7 6 8 ar
8 3 7 ar
9 7 11 ar
10 8 11 ar
11 9 10 ar
12 10 14 ar
13 11 20 1
14 12 16 ar
15 9 13 ar
16 14 17 ar
17 5 15 ar
18 15 17 ar
19 13 16 ar
20 16 17 ar
21 18 20 1
22 18 22 1
23 15 19 1
24 7 21 1
25 21 22 1
@<TRIPOS>SUBSTRUCTURE
1	LIG1	1	GROUP	1 C	LIG
