# created with PyMOL 3.1.3.1
@<TRIPOS>MOLECULE
predicted
40 45 1                 
SMALL
USER_CHARGES
@<TRIPOS>ATOM
1	CL30	-13.228	-3.215	-21.847	Cl	1	LIG1	0.000	
2	 O27	-10.762	2.384	-24.397	O.2	1	LIG1	0.000	
3	 O28	-5.903	2.194	-24.458	O.2	1	LIG1	0.000	
4	 O29	-8.590	0.671	-21.495	O.2	1	LIG1	0.000	
5	 N31	-8.317	-6.076	-28.222	N.2	1	LIG1	0.000	
6	 N32	-7.887	-4.214	-26.879	N.2	1	LIG1	0.000	
7	 N33	-6.175	-0.673	-17.981	N.2	1	LIG1	0.000	
8	 C34	-10.222	1.267	-24.243	C.2	1	LIG1	0.000	
9	 C35	-6.994	2.577	-24.191	C.2	1	LIG1	0.000	
10	 C36	-8.219	-0.389	-21.960	C.2	1	LIG1	0.000	
11	 C37	-7.999	-4.778	-28.059	C.2	1	LIG1	0.000	
12	 C38	-8.537	-6.818	-27.153	C.2	1	LIG1	0.000	
13	 C39	-6.876	-1.069	-19.042	C.2	1	LIG1	0.000	
14	 C40	-8.126	-4.945	-25.771	C.2	1	LIG1	0.000	
15	 C41	-8.444	-6.288	-25.853	C.2	1	LIG1	0.000	
16	 C42	-13.031	-0.835	-22.996	C.2	1	LIG1	0.000	
17	 C43	-12.340	0.203	-23.550	C.2	1	LIG1	0.000	
18	 C44	-10.944	-2.015	-22.577	C.2	1	LIG1	0.000	
19	 C45	-2.842	1.274	-20.879	C.2	1	LIG1	0.000	
20	 C46	-3.532	0.848	-22.008	C.2	1	LIG1	0.000	
21	 C47	-12.339	-1.954	-22.509	C.2	1	LIG1	0.000	
22	 C48	-10.954	0.150	-23.648	C.2	1	LIG1	0.000	
23	 C49	-10.263	-0.994	-23.215	C.2	1	LIG1	0.000	
24	 C50	-5.016	-0.029	-18.154	C.2	1	LIG1	0.000	
25	 C51	-3.329	0.982	-19.598	C.2	1	LIG1	0.000	
26	 C52	-4.704	0.156	-21.867	C.2	1	LIG1	0.000	
27	 C53	-6.437	-0.827	-20.359	C.2	1	LIG1	0.000	
28	 C54	-4.506	0.284	-19.436	C.2	1	LIG1	0.000	
29	 C55	-5.205	-0.121	-20.586	C.2	1	LIG1	0.000	
30	 N56	-7.264	3.242	-23.050	N.pl3	1	LIG1	0.000	
31	 N57	-8.067	-4.369	-24.564	N.pl3	1	LIG1	0.000	
32	 N58	-7.222	-1.177	-21.436	N.pl3	1	LIG1	0.000	
33	 N59	-8.880	1.131	-24.519	N.pl3	1	LIG1	0.000	
34	 C60	-6.228	3.625	-22.154	C.3	1	LIG1	0.000	
35	 C61	-8.159	2.243	-25.072	C.3	1	LIG1	0.000	
36	 C62	-7.993	-2.965	-24.467	C.3	1	LIG1	0.000	
37	 C63	-7.094	-2.407	-22.148	C.3	1	LIG1	0.000	
38	 C64	-8.251	-0.170	-24.460	C.3	1	LIG1	0.000	
39	 C65	-8.173	-2.385	-23.194	C.3	1	LIG1	0.000	
40	 C66	-8.752	-1.009	-23.233	C.3	1	LIG1	0.000	
@<TRIPOS>BOND
1 5 11 ar
2 7 24 ar
3 2 8 2
4 3 9 2
5 9 35 1
6 4 10 2
7 10 32 1
8 6 11 ar
9 5 12 ar
10 7 13 ar
11 6 14 ar
12 14 15 ar
13 12 15 ar
14 16 17 ar
15 17 22 ar
16 18 21 ar
17 19 20 ar
18 20 26 ar
19 1 21 1
20 16 21 ar
21 8 22 1
22 18 23 ar
23 22 23 ar
24 24 28 ar
25 19 25 ar
26 26 29 ar
27 13 27 ar
28 27 29 ar
29 25 28 ar
30 28 29 ar
31 9 30 1
32 14 31 1
33 27 32 1
34 32 37 1
35 8 33 1
36 33 38 1
37 30 34 1
38 33 35 1
39 31 36 1
40 37 39 1
41 38 40 1
42 36 39 1
43 10 40 1
44 23 40 1
45 39 40 1
@<TRIPOS>SUBSTRUCTURE
1	LIG1	1	GROUP	1 C	LIG
