# created with PyMOL 3.1.3.1
@<TRIPOS>MOLECULE
predicted
41 47 1                 
SMALL
USER_CHARGES
@<TRIPOS>ATOM
1	CL26	13.442	-2.018	22.087	Cl	1	LIG1	0.000	
2	 O24	10.167	3.502	23.905	O.2	1	LIG1	0.000	
3	 O25	8.562	1.510	20.926	O.2	1	LIG1	0.000	
4	 N27	5.472	-5.209	21.426	N.2	1	LIG1	0.000	
5	 N28	5.872	-4.125	22.136	N.2	1	LIG1	0.000	
6	 N29	5.036	5.281	21.945	N.2	1	LIG1	0.000	
7	 N30	4.606	4.846	23.138	N.2	1	LIG1	0.000	
8	 N31	6.188	0.117	17.417	N.2	1	LIG1	0.000	
9	 S32	6.990	-6.024	23.018	S.2	1	LIG1	0.000	
10	 C33	9.755	2.346	23.767	C.2	1	LIG1	0.000	
11	 C34	8.155	0.472	21.425	C.2	1	LIG1	0.000	
12	 C35	5.996	-6.278	21.786	C.2	1	LIG1	0.000	
13	 C36	6.738	-4.392	23.104	C.2	1	LIG1	0.000	
14	 C37	6.261	4.990	21.549	C.2	1	LIG1	0.000	
15	 C38	5.392	4.193	24.023	C.2	1	LIG1	0.000	
16	 C39	6.861	-0.250	18.498	C.2	1	LIG1	0.000	
17	 C40	12.851	0.410	22.970	C.2	1	LIG1	0.000	
18	 C41	12.011	1.438	23.330	C.2	1	LIG1	0.000	
19	 C42	7.113	4.287	22.384	C.2	1	LIG1	0.000	
20	 C43	10.953	-0.976	22.434	C.2	1	LIG1	0.000	
21	 C44	2.775	2.084	20.151	C.2	1	LIG1	0.000	
22	 C45	3.451	1.720	21.297	C.2	1	LIG1	0.000	
23	 C46	12.338	-0.792	22.514	C.2	1	LIG1	0.000	
24	 C47	10.645	1.260	23.301	C.2	1	LIG1	0.000	
25	 C48	6.690	3.831	23.620	C.2	1	LIG1	0.000	
26	 C49	10.101	0.028	22.880	C.2	1	LIG1	0.000	
27	 C50	5.030	0.744	17.535	C.2	1	LIG1	0.000	
28	 C51	3.295	1.758	18.899	C.2	1	LIG1	0.000	
29	 C52	4.631	1.045	21.211	C.2	1	LIG1	0.000	
30	 C53	6.428	0.046	19.787	C.2	1	LIG1	0.000	
31	 C54	4.493	1.084	18.782	C.2	1	LIG1	0.000	
32	 C55	5.178	0.730	19.952	C.2	1	LIG1	0.000	
33	 N56	7.321	-3.513	24.036	N.pl3	1	LIG1	0.000	
34	 N57	7.174	-0.304	20.895	N.pl3	1	LIG1	0.000	
35	 N58	8.414	2.071	23.989	N.pl3	1	LIG1	0.000	
36	 C59	7.585	3.091	24.573	C.3	1	LIG1	0.000	
37	 C60	7.919	-2.241	23.926	C.3	1	LIG1	0.000	
38	 C61	7.008	-1.505	21.626	C.3	1	LIG1	0.000	
39	 C62	7.899	0.713	23.898	C.3	1	LIG1	0.000	
40	 C63	8.097	-1.512	22.679	C.3	1	LIG1	0.000	
41	 C64	8.592	-0.103	22.753	C.3	1	LIG1	0.000	
@<TRIPOS>BOND
1 2 10 2
2 4 12 ar
3 4 5 ar
4 6 7 ar
5 7 15 ar
6 8 27 ar
7 10 24 1
8 10 35 1
9 3 11 2
10 11 34 1
11 9 12 ar
12 5 13 ar
13 9 13 ar
14 6 14 ar
15 8 16 ar
16 17 23 ar
17 17 18 ar
18 14 19 ar
19 20 26 ar
20 21 22 ar
21 22 29 ar
22 1 23 1
23 20 23 ar
24 18 24 ar
25 24 26 ar
26 15 25 ar
27 19 25 ar
28 26 41 1
29 27 31 ar
30 21 28 ar
31 29 32 ar
32 16 30 ar
33 30 32 ar
34 28 31 ar
35 31 32 ar
36 13 33 1
37 30 34 1
38 34 38 1
39 35 36 1
40 25 36 1
41 33 37 1
42 38 40 1
43 35 39 1
44 37 40 1
45 11 41 1
46 39 41 1
47 40 41 1
@<TRIPOS>SUBSTRUCTURE
1	LIG1	1	GROUP	1 C	LIG
