# created with PyMOL 3.1.3.1
@<TRIPOS>MOLECULE
predicted
38 43 1                 
SMALL
USER_CHARGES
@<TRIPOS>ATOM
1	CL33	13.640	-2.019	21.977	Cl	1	LIG1	0.000	
2	 O30	10.378	3.567	23.473	O.2	1	LIG1	0.000	
3	 O31	5.668	3.180	23.477	O.2	1	LIG1	0.000	
4	 O32	8.659	1.485	20.729	O.2	1	LIG1	0.000	
5	 N34	6.213	0.071	17.354	N.2	1	LIG1	0.000	
6	 O35	7.154	-2.108	24.432	O.3	1	LIG1	0.000	
7	 C36	9.976	2.400	23.435	C.2	1	LIG1	0.000	
8	 C37	6.740	3.558	23.202	C.2	1	LIG1	0.000	
9	 C38	8.314	0.437	21.246	C.2	1	LIG1	0.000	
10	 C39	6.945	-0.286	18.389	C.2	1	LIG1	0.000	
11	 C40	13.026	0.439	22.760	C.2	1	LIG1	0.000	
12	 C41	12.205	1.463	23.076	C.2	1	LIG1	0.000	
13	 C42	11.142	-0.953	22.250	C.2	1	LIG1	0.000	
14	 C43	2.881	1.822	20.315	C.2	1	LIG1	0.000	
15	 C44	3.616	1.431	21.412	C.2	1	LIG1	0.000	
16	 C45	12.507	-0.762	22.339	C.2	1	LIG1	0.000	
17	 C46	10.854	1.300	23.047	C.2	1	LIG1	0.000	
18	 C47	10.300	0.061	22.661	C.2	1	LIG1	0.000	
19	 C48	5.033	0.658	17.553	C.2	1	LIG1	0.000	
20	 C49	3.352	1.566	19.036	C.2	1	LIG1	0.000	
21	 C50	4.802	0.805	21.248	C.2	1	LIG1	0.000	
22	 C51	6.524	-0.078	19.689	C.2	1	LIG1	0.000	
23	 C52	4.542	0.930	18.839	C.2	1	LIG1	0.000	
24	 C53	5.290	0.555	19.959	C.2	1	LIG1	0.000	
25	 N54	6.968	4.209	22.066	N.pl3	1	LIG1	0.000	
26	 N55	7.346	-0.386	20.752	N.pl3	1	LIG1	0.000	
27	 N56	8.654	2.139	23.662	N.pl3	1	LIG1	0.000	
28	 C57	5.942	4.604	21.198	C.3	1	LIG1	0.000	
29	 C58	7.845	3.237	24.077	C.3	1	LIG1	0.000	
30	 C59	7.043	-2.938	25.544	C.3	1	LIG1	0.000	
31	 C60	5.341	-1.898	27.195	C.3	1	LIG1	0.000	
32	 C61	4.689	-2.374	26.162	C.3	1	LIG1	0.000	
33	 C62	6.078	-2.679	26.506	C.3	1	LIG1	0.000	
34	 C63	8.276	-2.234	23.736	C.3	1	LIG1	0.000	
35	 C64	7.257	-1.579	21.486	C.3	1	LIG1	0.000	
36	 C65	8.166	0.770	23.688	C.3	1	LIG1	0.000	
37	 C66	8.345	-1.491	22.492	C.3	1	LIG1	0.000	
38	 C67	8.817	-0.076	22.542	C.3	1	LIG1	0.000	
@<TRIPOS>BOND
1 5 19 ar
2 6 30 1
3 2 7 2
4 3 8 2
5 8 29 1
6 4 9 2
7 9 26 1
8 5 10 ar
9 11 12 ar
10 12 17 ar
11 13 16 ar
12 14 15 ar
13 15 21 ar
14 1 16 1
15 11 16 ar
16 7 17 1
17 13 18 ar
18 17 18 ar
19 19 23 ar
20 14 20 ar
21 21 24 ar
22 10 22 ar
23 22 24 ar
24 20 23 ar
25 23 24 ar
26 8 25 1
27 22 26 1
28 26 35 1
29 7 27 1
30 27 36 1
31 25 28 1
32 27 29 1
33 30 33 1
34 31 32 1
35 31 33 1
36 32 33 1
37 6 34 1
38 35 37 1
39 36 38 1
40 34 37 1
41 9 38 1
42 18 38 1
43 37 38 1
@<TRIPOS>SUBSTRUCTURE
1	LIG1	1	GROUP	1 C	LIG
