# created with PyMOL 3.1.3.1
@<TRIPOS>MOLECULE
predicted
25 28 1                 
SMALL
USER_CHARGES
@<TRIPOS>ATOM
1	 O20	-8.778	-0.720	-21.079	O.2	1	LIG1	0.000	
2	 N22	-6.510	-0.814	-17.365	N.2	1	LIG1	0.000	
3	 C23	-8.357	-1.812	-21.406	C.2	1	LIG1	0.000	
4	 C24	-7.054	-1.600	-18.304	C.2	1	LIG1	0.000	
5	 C25	-13.264	-2.799	-24.386	C.2	1	LIG1	0.000	
6	 C26	-13.782	-3.127	-23.154	C.2	1	LIG1	0.000	
7	 C27	-11.908	-2.367	-24.491	C.2	1	LIG1	0.000	
8	 C28	-11.659	-2.660	-22.126	C.2	1	LIG1	0.000	
9	 C29	-3.418	0.998	-20.535	C.2	1	LIG1	0.000	
10	 C30	-3.954	0.221	-21.507	C.2	1	LIG1	0.000	
11	 C31	-13.016	-3.067	-22.028	C.2	1	LIG1	0.000	
12	 C32	-11.112	-2.324	-23.352	C.2	1	LIG1	0.000	
13	 C33	-5.502	-0.030	-17.634	C.2	1	LIG1	0.000	
14	 C34	-3.911	0.943	-19.250	C.2	1	LIG1	0.000	
15	 C35	-5.007	-0.618	-21.259	C.2	1	LIG1	0.000	
16	 C36	-6.606	-1.588	-19.610	C.2	1	LIG1	0.000	
17	 C37	-4.969	0.086	-18.935	C.2	1	LIG1	0.000	
18	 C38	-5.527	-0.718	-19.954	C.2	1	LIG1	0.000	
19	 N39	-8.795	-2.465	-22.521	N.pl3	1	LIG1	0.000	
20	 C40	-7.283	-2.504	-20.611	C.3	1	LIG1	0.000	
21	 C41	-8.340	-3.796	-22.913	C.3	1	LIG1	0.000	
22	 C42	-8.768	-3.971	-24.357	C.3	1	LIG1	0.000	
23	 C43	-9.084	-2.495	-24.785	C.3	1	LIG1	0.000	
24	 C44	-9.653	-1.849	-23.497	C.3	1	LIG1	0.000	
25	 F21	-13.517	-3.360	-20.829	 F	1	LIG1	0.000	
@<TRIPOS>BOND
1 1 3 2
2 2 13 ar
3 3 19 1
4 3 20 1
5 2 4 ar
6 5 6 ar
7 6 11 ar
8 5 7 ar
9 9 10 ar
10 10 15 ar
11 8 11 ar
12 11 25 1
13 7 12 ar
14 8 12 ar
15 13 17 ar
16 9 14 ar
17 15 18 ar
18 4 16 ar
19 16 18 ar
20 14 17 ar
21 17 18 ar
22 19 21 1
23 19 24 1
24 16 20 1
25 21 22 1
26 22 23 1
27 23 24 1
28 12 24 1
@<TRIPOS>SUBSTRUCTURE
1	LIG1	1	GROUP	1 C	LIG
