# created with PyMOL 3.1.3.1
@<TRIPOS>MOLECULE
predicted
30 34 1                 
SMALL
USER_CHARGES
@<TRIPOS>ATOM
1	 O17	-5.199	-3.547	-20.932	O.2	1	LIG1	0.000	
2	 O18	-8.144	-0.250	-21.775	O.2	1	LIG1	0.000	
3	 O19	-3.579	-0.954	-25.423	O.2	1	LIG1	0.000	
4	 O20	-4.201	-1.004	-27.730	O.2	1	LIG1	0.000	
5	 N21	-5.957	-0.425	-17.681	N.2	1	LIG1	0.000	
6	 O22	-9.658	-3.044	-24.897	O.3	1	LIG1	0.000	
7	 C23	-6.098	-2.985	-21.405	C.2	1	LIG1	0.000	
8	 C24	-7.578	-1.324	-21.836	C.2	1	LIG1	0.000	
9	 C25	-6.468	-1.085	-18.680	C.2	1	LIG1	0.000	
10	 C26	-8.233	-2.160	-26.538	C.2	1	LIG1	0.000	
11	 C27	-7.036	-1.597	-26.907	C.2	1	LIG1	0.000	
12	 C28	-6.330	-1.527	-24.616	C.2	1	LIG1	0.000	
13	 C29	-2.810	1.631	-20.622	C.2	1	LIG1	0.000	
14	 C30	-3.345	0.954	-21.692	C.2	1	LIG1	0.000	
15	 C31	-8.462	-2.419	-25.232	C.2	1	LIG1	0.000	
16	 C32	-7.552	-2.100	-24.227	C.2	1	LIG1	0.000	
17	 C33	-6.090	-1.287	-25.943	C.2	1	LIG1	0.000	
18	 C34	-4.893	0.372	-17.867	C.2	1	LIG1	0.000	
19	 C35	-3.306	1.454	-19.357	C.2	1	LIG1	0.000	
20	 C36	-4.392	0.099	-21.517	C.2	1	LIG1	0.000	
21	 C37	-6.002	-0.958	-19.960	C.2	1	LIG1	0.000	
22	 C38	-4.359	0.589	-19.145	C.2	1	LIG1	0.000	
23	 C39	-4.908	-0.093	-20.223	C.2	1	LIG1	0.000	
24	 N40	-6.536	-1.714	-21.030	N.pl3	1	LIG1	0.000	
25	 N41	-6.832	-3.395	-22.411	N.pl3	1	LIG1	0.000	
26	 N42	-4.786	1.037	-26.311	N.3	1	LIG1	0.000	
27	 C43	-10.205	-2.611	-23.609	C.3	1	LIG1	0.000	
28	 C44	-9.236	-2.969	-22.536	C.3	1	LIG1	0.000	
29	 C45	-7.804	-2.416	-22.799	C.3	1	LIG1	0.000	
30	 S46	-4.583	-0.564	-26.387	S.O2	1	LIG1	0.000	
@<TRIPOS>BOND
1 5 18 ar
2 1 7 2
3 7 24 1
4 2 8 2
5 5 9 ar
6 10 15 ar
7 10 11 ar
8 13 14 ar
9 14 20 ar
10 6 15 1
11 15 16 ar
12 12 16 ar
13 16 29 1
14 11 17 ar
15 12 17 ar
16 18 22 ar
17 13 19 ar
18 20 23 ar
19 9 21 ar
20 21 23 ar
21 19 22 ar
22 22 23 ar
23 8 24 1
24 21 24 1
25 7 25 1
26 26 30 1
27 6 27 1
28 27 28 1
29 8 29 1
30 25 29 1
31 28 29 1
32 3 30 2
33 4 30 2
34 17 30 1
@<TRIPOS>SUBSTRUCTURE
1	LIG1	1	GROUP	1 C	LIG
