# created with PyMOL 3.1.3.1
@<TRIPOS>MOLECULE
predicted
32 36 1                 
SMALL
USER_CHARGES
@<TRIPOS>ATOM
1	 O25	-11.489	2.177	-23.817	O.2	1	LIG1	0.000	
2	 O26	-6.578	2.314	-24.328	O.2	1	LIG1	0.000	
3	 O27	-9.000	0.572	-21.305	O.2	1	LIG1	0.000	
4	 N28	-6.387	-0.502	-17.937	N.2	1	LIG1	0.000	
5	 C29	-10.810	1.139	-23.830	C.2	1	LIG1	0.000	
6	 C30	-7.597	2.752	-23.877	C.2	1	LIG1	0.000	
7	 C31	-8.498	-0.405	-21.862	C.2	1	LIG1	0.000	
8	 C32	-7.065	-0.914	-18.996	C.2	1	LIG1	0.000	
9	 C33	-13.247	-1.499	-22.875	C.2	1	LIG1	0.000	
10	 C34	-12.409	-2.570	-22.531	C.2	1	LIG1	0.000	
11	 C35	-12.724	-0.295	-23.291	C.2	1	LIG1	0.000	
12	 C36	-10.997	-2.429	-22.587	C.2	1	LIG1	0.000	
13	 C37	-2.990	1.371	-20.797	C.2	1	LIG1	0.000	
14	 C38	-3.658	0.928	-21.922	C.2	1	LIG1	0.000	
15	 C39	-11.356	-0.142	-23.382	C.2	1	LIG1	0.000	
16	 C40	-10.482	-1.220	-23.105	C.2	1	LIG1	0.000	
17	 C41	-5.222	0.150	-18.089	C.2	1	LIG1	0.000	
18	 C42	-3.503	1.120	-19.534	C.2	1	LIG1	0.000	
19	 C43	-4.841	0.256	-21.793	C.2	1	LIG1	0.000	
20	 C44	-6.634	-0.679	-20.311	C.2	1	LIG1	0.000	
21	 C45	-4.696	0.437	-19.368	C.2	1	LIG1	0.000	
22	 C46	-5.389	0.006	-20.519	C.2	1	LIG1	0.000	
23	 N47	-7.636	3.403	-22.707	N.pl3	1	LIG1	0.000	
24	 N48	-7.399	-1.063	-21.399	N.pl3	1	LIG1	0.000	
25	 N49	-9.463	1.214	-24.179	N.pl3	1	LIG1	0.000	
26	 C50	-6.433	3.657	-21.974	C.3	1	LIG1	0.000	
27	 C51	-8.897	2.486	-24.575	C.3	1	LIG1	0.000	
28	 C52	-8.127	-2.940	-24.544	C.3	1	LIG1	0.000	
29	 C53	-7.119	-2.228	-22.217	C.3	1	LIG1	0.000	
30	 C54	-8.669	-0.029	-24.331	C.3	1	LIG1	0.000	
31	 C55	-8.197	-2.275	-23.243	C.3	1	LIG1	0.000	
32	 C56	-9.013	-1.015	-23.179	C.3	1	LIG1	0.000	
@<TRIPOS>BOND
1 4 17 ar
2 1 5 2
3 2 6 2
4 6 27 1
5 3 7 2
6 7 24 1
7 4 8 ar
8 9 11 ar
9 9 10 ar
10 11 15 ar
11 10 12 ar
12 13 14 ar
13 14 19 ar
14 5 15 1
15 12 16 ar
16 15 16 ar
17 17 21 ar
18 13 18 ar
19 19 22 ar
20 8 20 ar
21 20 22 ar
22 18 21 ar
23 21 22 ar
24 6 23 1
25 20 24 1
26 24 29 1
27 5 25 1
28 25 30 1
29 23 26 1
30 25 27 1
31 29 31 1
32 30 32 1
33 28 31 1
34 7 32 1
35 16 32 1
36 31 32 1
@<TRIPOS>SUBSTRUCTURE
1	LIG1	1	GROUP	1 C	LIG
