# created with PyMOL 3.1.3.1
@<TRIPOS>MOLECULE
predicted
22 24 1                 
SMALL
USER_CHARGES
@<TRIPOS>ATOM
1	 O25	-8.037	0.335	-21.224	O.2	1	LIG1	0.000	
2	 N26	-5.866	-0.583	-17.714	N.2	1	LIG1	0.000	
3	 C27	-7.816	-0.743	-21.720	C.2	1	LIG1	0.000	
4	 C28	-6.469	-1.162	-18.755	C.2	1	LIG1	0.000	
5	 C29	-2.627	1.317	-20.601	C.2	1	LIG1	0.000	
6	 C30	-3.218	0.745	-21.676	C.2	1	LIG1	0.000	
7	 C31	-4.798	0.133	-17.868	C.2	1	LIG1	0.000	
8	 C32	-3.131	1.135	-19.334	C.2	1	LIG1	0.000	
9	 C33	-4.335	-0.007	-21.541	C.2	1	LIG1	0.000	
10	 C34	-6.016	-1.015	-20.020	C.2	1	LIG1	0.000	
11	 C35	-4.258	0.363	-19.146	C.2	1	LIG1	0.000	
12	 C36	-4.872	-0.227	-20.278	C.2	1	LIG1	0.000	
13	 N37	-8.471	-1.104	-22.839	N.pl3	1	LIG1	0.000	
14	 C38	-6.785	-1.666	-21.147	C.3	1	LIG1	0.000	
15	 C39	-12.969	-2.943	-24.853	C.3	1	LIG1	0.000	
16	 C40	-12.823	-2.658	-22.324	C.3	1	LIG1	0.000	
17	 C41	-8.550	-2.488	-23.291	C.3	1	LIG1	0.000	
18	 C42	-9.215	-0.117	-23.591	C.3	1	LIG1	0.000	
19	 C43	-10.033	-2.877	-23.137	C.3	1	LIG1	0.000	
20	 C44	-10.679	-0.450	-23.437	C.3	1	LIG1	0.000	
21	 C45	-12.440	-2.162	-23.668	C.3	1	LIG1	0.000	
22	 C46	-10.938	-1.878	-23.810	C.3	1	LIG1	0.000	
@<TRIPOS>BOND
1 2 7 ar
2 1 3 2
3 3 14 1
4 2 4 ar
5 5 6 ar
6 6 9 ar
7 7 11 ar
8 5 8 ar
9 9 12 ar
10 4 10 ar
11 10 12 ar
12 8 11 ar
13 11 12 ar
14 3 13 1
15 13 18 1
16 10 14 1
17 15 21 1
18 13 17 1
19 18 20 1
20 17 19 1
21 16 21 1
22 21 22 1
23 19 22 1
24 20 22 1
@<TRIPOS>SUBSTRUCTURE
1	LIG1	1	GROUP	1 C	LIG
