# created with PyMOL 3.1.3.1
@<TRIPOS>MOLECULE
predicted
32 35 1                 
SMALL
USER_CHARGES
@<TRIPOS>ATOM
1	 O26	8.544	0.328	21.388	O.2	1	LIG1	0.000	
2	 O27	6.508	-4.572	21.503	O.2	1	LIG1	0.000	
3	 N28	6.227	-0.636	17.905	N.2	1	LIG1	0.000	
4	 C29	8.080	-0.635	22.002	C.2	1	LIG1	0.000	
5	 C30	6.647	-5.560	22.185	C.2	1	LIG1	0.000	
6	 C31	6.752	-1.126	19.021	C.2	1	LIG1	0.000	
7	 C32	13.418	-2.420	23.235	C.2	1	LIG1	0.000	
8	 C33	7.399	-2.976	26.121	C.2	1	LIG1	0.000	
9	 C34	13.239	-1.549	24.277	C.2	1	LIG1	0.000	
10	 C35	12.431	-2.611	22.349	C.2	1	LIG1	0.000	
11	 C36	7.177	-4.204	25.530	C.2	1	LIG1	0.000	
12	 C37	7.889	-1.907	25.355	C.2	1	LIG1	0.000	
13	 C38	7.897	-3.302	23.422	C.2	1	LIG1	0.000	
14	 C39	12.023	-0.854	24.386	C.2	1	LIG1	0.000	
15	 C40	11.218	-1.916	22.479	C.2	1	LIG1	0.000	
16	 C41	2.992	1.711	20.468	C.2	1	LIG1	0.000	
17	 C42	3.542	1.242	21.628	C.2	1	LIG1	0.000	
18	 C43	7.399	-4.340	24.142	C.2	1	LIG1	0.000	
19	 C44	8.121	-2.074	23.992	C.2	1	LIG1	0.000	
20	 C45	11.030	-1.028	23.493	C.2	1	LIG1	0.000	
21	 C46	5.188	0.130	17.955	C.2	1	LIG1	0.000	
22	 C47	3.529	1.363	19.246	C.2	1	LIG1	0.000	
23	 C48	4.623	0.405	21.621	C.2	1	LIG1	0.000	
24	 C49	6.283	-0.818	20.281	C.2	1	LIG1	0.000	
25	 C50	4.611	0.512	19.187	C.2	1	LIG1	0.000	
26	 C51	5.161	0.023	20.384	C.2	1	LIG1	0.000	
27	 N52	7.113	-5.547	23.462	N.pl3	1	LIG1	0.000	
28	 N53	8.605	-0.979	23.203	N.pl3	1	LIG1	0.000	
29	 C54	6.937	-1.402	21.484	C.3	1	LIG1	0.000	
30	 C55	9.740	-0.232	23.673	C.3	1	LIG1	0.000	
31	 C56	6.039	-6.732	20.149	C.3	1	LIG1	0.000	
32	 C57	6.320	-6.861	21.602	C.3	1	LIG1	0.000	
@<TRIPOS>BOND
1 3 21 ar
2 1 4 2
3 4 29 1
4 2 5 2
5 5 27 1
6 3 6 ar
7 7 10 ar
8 8 12 ar
9 7 9 ar
10 10 15 ar
11 8 11 ar
12 12 19 ar
13 9 14 ar
14 16 17 ar
15 17 23 ar
16 11 18 ar
17 13 18 ar
18 13 19 ar
19 19 28 1
20 14 20 ar
21 15 20 ar
22 21 25 ar
23 16 22 ar
24 23 26 ar
25 6 24 ar
26 24 26 ar
27 22 25 ar
28 25 26 ar
29 18 27 1
30 4 28 1
31 28 30 1
32 24 29 1
33 20 30 1
34 31 32 1
35 5 32 1
@<TRIPOS>SUBSTRUCTURE
1	LIG1	1	GROUP	1 C	LIG
