# created with PyMOL 3.1.3.1
@<TRIPOS>MOLECULE
predicted
36 41 1                 
SMALL
USER_CHARGES
@<TRIPOS>ATOM
1	CL27	-13.299	-3.109	-21.772	Cl	1	LIG1	0.000	
2	 O25	-10.640	2.383	-24.471	O.2	1	LIG1	0.000	
3	 O26	-8.579	0.669	-21.470	O.2	1	LIG1	0.000	
4	 N28	-6.203	-0.528	-17.964	N.2	1	LIG1	0.000	
5	 N29	-6.673	4.078	-22.303	N.pl3	1	LIG1	0.000	
6	 O30	-8.163	-4.475	-24.314	O.3	1	LIG1	0.000	
7	 C31	-10.121	1.275	-24.273	C.2	1	LIG1	0.000	
8	 C32	-8.188	-0.390	-21.937	C.2	1	LIG1	0.000	
9	 C33	-7.704	3.655	-23.089	C.2	1	LIG1	0.000	
10	 C34	-6.860	-0.951	-19.022	C.2	1	LIG1	0.000	
11	 C35	-13.002	-0.733	-23.014	C.2	1	LIG1	0.000	
12	 C36	-12.281	0.278	-23.580	C.2	1	LIG1	0.000	
13	 C37	-10.955	-1.963	-22.547	C.2	1	LIG1	0.000	
14	 C38	-2.849	1.428	-20.825	C.2	1	LIG1	0.000	
15	 C39	-3.507	0.967	-21.948	C.2	1	LIG1	0.000	
16	 C40	-12.345	-1.856	-22.486	C.2	1	LIG1	0.000	
17	 C41	-10.897	0.173	-23.647	C.2	1	LIG1	0.000	
18	 C42	-7.207	2.877	-24.069	C.2	1	LIG1	0.000	
19	 C43	-10.223	-0.986	-23.202	C.2	1	LIG1	0.000	
20	 C44	-5.053	0.149	-18.122	C.2	1	LIG1	0.000	
21	 C45	-3.355	1.157	-19.558	C.2	1	LIG1	0.000	
22	 C46	-4.659	0.256	-21.821	C.2	1	LIG1	0.000	
23	 C47	-6.406	-0.737	-20.336	C.2	1	LIG1	0.000	
24	 C48	-5.839	2.873	-23.929	C.2	1	LIG1	0.000	
25	 C49	-4.525	0.440	-19.394	C.2	1	LIG1	0.000	
26	 C50	-5.200	-0.008	-20.551	C.2	1	LIG1	0.000	
27	 N51	-7.165	-1.133	-21.409	N.pl3	1	LIG1	0.000	
28	 N52	-8.771	1.086	-24.547	N.pl3	1	LIG1	0.000	
29	 N53	-5.590	3.604	-22.794	N.2	1	LIG1	0.000	
30	 C54	-8.412	-5.125	-25.535	C.3	1	LIG1	0.000	
31	 C55	-7.995	2.151	-25.158	C.3	1	LIG1	0.000	
32	 C56	-8.161	-3.113	-24.430	C.3	1	LIG1	0.000	
33	 C57	-7.006	-2.363	-22.143	C.3	1	LIG1	0.000	
34	 C58	-8.156	-0.228	-24.438	C.3	1	LIG1	0.000	
35	 C59	-8.153	-2.416	-23.119	C.3	1	LIG1	0.000	
36	 C60	-8.722	-1.023	-23.209	C.3	1	LIG1	0.000	
@<TRIPOS>BOND
1 4 20 ar
2 5 29 ar
3 6 32 1
4 2 7 2
5 7 17 1
6 3 8 2
7 8 36 1
8 5 9 ar
9 4 10 ar
10 11 16 ar
11 11 12 ar
12 13 19 ar
13 14 15 ar
14 15 22 ar
15 1 16 1
16 13 16 ar
17 12 17 ar
18 17 19 ar
19 9 18 ar
20 18 24 ar
21 20 25 ar
22 14 21 ar
23 22 26 ar
24 10 23 ar
25 23 26 ar
26 21 25 ar
27 25 26 ar
28 8 27 1
29 23 27 1
30 7 28 1
31 28 31 1
32 24 29 ar
33 6 30 1
34 18 31 1
35 32 35 1
36 27 33 1
37 28 34 1
38 33 35 1
39 35 36 1
40 19 36 1
41 34 36 1
@<TRIPOS>SUBSTRUCTURE
1	LIG1	1	GROUP	1 C	LIG
