# created with PyMOL 3.1.3.1
@<TRIPOS>MOLECULE
predicted
30 33 1                 
SMALL
USER_CHARGES
@<TRIPOS>ATOM
1	CL21	13.455	-1.821	20.639	Cl	1	LIG1	0.000	
2	 N19	6.629	-4.958	26.431	N.1	1	LIG1	0.000	
3	 O20	8.483	1.181	20.595	O.2	1	LIG1	0.000	
4	 C22	6.985	-4.114	25.747	C.1	1	LIG1	0.000	
5	 N23	6.074	0.117	17.197	N.2	1	LIG1	0.000	
6	 C24	8.122	0.190	21.233	C.2	1	LIG1	0.000	
7	 C25	6.708	-0.388	18.244	C.2	1	LIG1	0.000	
8	 C26	12.681	-0.841	24.432	C.2	1	LIG1	0.000	
9	 C27	13.299	-1.352	23.285	C.2	1	LIG1	0.000	
10	 C28	6.727	-1.841	24.928	C.2	1	LIG1	0.000	
11	 C29	8.431	-3.309	24.031	C.2	1	LIG1	0.000	
12	 C30	7.153	-0.845	24.109	C.2	1	LIG1	0.000	
13	 C31	8.837	-2.305	23.216	C.2	1	LIG1	0.000	
14	 C32	11.487	-0.149	24.288	C.2	1	LIG1	0.000	
15	 C33	11.520	-0.503	21.914	C.2	1	LIG1	0.000	
16	 C34	2.857	2.106	20.049	C.2	1	LIG1	0.000	
17	 C35	3.506	1.617	21.149	C.2	1	LIG1	0.000	
18	 C36	12.717	-1.189	22.047	C.2	1	LIG1	0.000	
19	 C37	7.394	-3.105	24.912	C.2	1	LIG1	0.000	
20	 C38	8.207	-1.084	23.273	C.2	1	LIG1	0.000	
21	 C39	10.974	0.054	23.037	C.2	1	LIG1	0.000	
22	 C40	4.993	0.795	17.353	C.2	1	LIG1	0.000	
23	 C41	3.339	1.841	18.788	C.2	1	LIG1	0.000	
24	 C42	4.649	0.878	21.037	C.2	1	LIG1	0.000	
25	 C43	6.317	-0.182	19.548	C.2	1	LIG1	0.000	
26	 C44	4.485	1.082	18.625	C.2	1	LIG1	0.000	
27	 C45	5.149	0.586	19.750	C.2	1	LIG1	0.000	
28	 N46	8.600	-0.028	22.420	N.pl3	1	LIG1	0.000	
29	 C47	7.080	-0.753	20.676	C.3	1	LIG1	0.000	
30	 C48	9.688	0.843	22.931	C.3	1	LIG1	0.000	
@<TRIPOS>BOND
1 2 4 3
2 4 19 1
3 5 22 ar
4 3 6 2
5 6 29 1
6 5 7 ar
7 8 9 ar
8 9 18 ar
9 10 12 ar
10 12 20 ar
11 11 13 ar
12 8 14 ar
13 16 17 ar
14 17 24 ar
15 1 18 1
16 15 18 ar
17 10 19 ar
18 11 19 ar
19 13 20 ar
20 20 28 1
21 14 21 ar
22 15 21 ar
23 22 26 ar
24 16 23 ar
25 24 27 ar
26 7 25 ar
27 25 27 ar
28 23 26 ar
29 26 27 ar
30 6 28 1
31 28 30 1
32 25 29 1
33 21 30 1
@<TRIPOS>SUBSTRUCTURE
1	LIG1	1	GROUP	1 C	LIG
