# created with PyMOL 3.1.3.1
@<TRIPOS>MOLECULE
predicted
34 39 1                 
SMALL
USER_CHARGES
@<TRIPOS>ATOM
1	 O22	10.638	3.223	23.880	O.2	1	LIG1	0.000	
2	 O23	8.830	1.329	20.941	O.2	1	LIG1	0.000	
3	 N25	5.868	3.572	23.476	N.2	1	LIG1	0.000	
4	 N26	6.352	0.136	17.526	N.2	1	LIG1	0.000	
5	 O27	5.476	4.204	22.337	O.2	1	LIG1	0.000	
6	 C28	10.192	2.082	23.738	C.2	1	LIG1	0.000	
7	 C29	8.442	0.288	21.440	C.2	1	LIG1	0.000	
8	 C30	7.066	-0.267	18.561	C.2	1	LIG1	0.000	
9	 C31	7.169	3.523	23.482	C.2	1	LIG1	0.000	
10	 C32	6.515	4.551	21.648	C.2	1	LIG1	0.000	
11	 C33	7.637	4.136	22.360	C.2	1	LIG1	0.000	
12	 C34	13.208	0.099	22.784	C.2	1	LIG1	0.000	
13	 C35	12.420	1.134	23.212	C.2	1	LIG1	0.000	
14	 C36	11.260	-1.225	22.282	C.2	1	LIG1	0.000	
15	 C37	2.960	1.819	20.502	C.2	1	LIG1	0.000	
16	 C38	3.672	1.379	21.601	C.2	1	LIG1	0.000	
17	 C39	12.646	-1.073	22.329	C.2	1	LIG1	0.000	
18	 C40	11.042	0.990	23.225	C.2	1	LIG1	0.000	
19	 C41	10.443	-0.213	22.794	C.2	1	LIG1	0.000	
20	 C42	5.169	0.734	17.714	C.2	1	LIG1	0.000	
21	 C43	3.448	1.604	19.217	C.2	1	LIG1	0.000	
22	 C44	4.867	0.750	21.418	C.2	1	LIG1	0.000	
23	 C45	6.635	-0.078	19.871	C.2	1	LIG1	0.000	
24	 C46	4.662	0.972	19.011	C.2	1	LIG1	0.000	
25	 C47	5.392	0.549	20.130	C.2	1	LIG1	0.000	
26	 N48	7.422	-0.452	20.941	N.pl3	1	LIG1	0.000	
27	 N49	8.836	1.826	23.993	N.pl3	1	LIG1	0.000	
28	 C50	7.994	2.846	24.567	C.3	1	LIG1	0.000	
29	 C51	8.263	-2.487	23.875	C.3	1	LIG1	0.000	
30	 C52	7.281	-1.683	21.661	C.3	1	LIG1	0.000	
31	 C53	8.295	0.479	23.914	C.3	1	LIG1	0.000	
32	 C54	8.418	-1.703	22.645	C.3	1	LIG1	0.000	
33	 C55	8.944	-0.307	22.738	C.3	1	LIG1	0.000	
34	 F24	13.450	-2.047	21.920	 F	1	LIG1	0.000	
@<TRIPOS>BOND
1 4 20 ar
2 3 5 ar
3 1 6 2
4 6 18 1
5 2 7 2
6 7 33 1
7 4 8 ar
8 3 9 ar
9 9 11 ar
10 5 10 ar
11 10 11 ar
12 12 17 ar
13 12 13 ar
14 14 19 ar
15 15 16 ar
16 16 22 ar
17 14 17 ar
18 17 34 1
19 13 18 ar
20 18 19 ar
21 20 24 ar
22 15 21 ar
23 22 25 ar
24 8 23 ar
25 23 25 ar
26 21 24 ar
27 24 25 ar
28 7 26 1
29 23 26 1
30 6 27 1
31 27 28 1
32 9 28 1
33 29 32 1
34 26 30 1
35 27 31 1
36 30 32 1
37 32 33 1
38 19 33 1
39 31 33 1
@<TRIPOS>SUBSTRUCTURE
1	LIG1	1	GROUP	1 C	LIG
