# created with PyMOL 3.1.3.1
@<TRIPOS>MOLECULE
predicted
25 28 1                 
SMALL
USER_CHARGES
@<TRIPOS>ATOM
1	 O23	8.262	1.238	20.650	O.2	1	LIG1	0.000	
2	 N26	6.032	0.144	17.259	N.2	1	LIG1	0.000	
3	 C27	8.145	0.131	21.178	C.2	1	LIG1	0.000	
4	 C28	6.721	-0.380	18.265	C.2	1	LIG1	0.000	
5	 C29	2.801	1.836	20.274	C.2	1	LIG1	0.000	
6	 C30	3.486	1.339	21.320	C.2	1	LIG1	0.000	
7	 C31	4.919	0.777	17.463	C.2	1	LIG1	0.000	
8	 C32	3.252	1.666	18.997	C.2	1	LIG1	0.000	
9	 C33	4.652	0.662	21.138	C.2	1	LIG1	0.000	
10	 C34	6.321	-0.247	19.563	C.2	1	LIG1	0.000	
11	 C35	4.424	0.982	18.764	C.2	1	LIG1	0.000	
12	 C36	5.142	0.459	19.853	C.2	1	LIG1	0.000	
13	 N37	8.787	-0.318	22.302	N.pl3	1	LIG1	0.000	
14	 C38	7.163	-0.833	20.635	C.3	1	LIG1	0.000	
15	 C39	8.794	0.393	23.497	C.3	1	LIG1	0.000	
16	 C40	13.513	-0.581	23.256	C.2	1	LIG1	0.000	
17	 C41	13.226	-1.733	22.383	C.2	1	LIG1	0.000	
18	 C42	9.436	-1.565	22.351	C.3	1	LIG1	0.000	
19	 C43	10.172	0.927	23.676	C.3	1	LIG1	0.000	
20	 C44	12.494	0.251	23.653	C.2	1	LIG1	0.000	
21	 C45	11.822	-2.027	22.163	C.2	1	LIG1	0.000	
22	 C46	11.199	-0.052	23.378	C.2	1	LIG1	0.000	
23	 C47	10.899	-1.212	22.618	C.2	1	LIG1	0.000	
24	 F24	13.817	-2.764	22.979	 F	1	LIG1	0.000	
25	 F25	13.820	-1.468	21.200	 F	1	LIG1	0.000	
@<TRIPOS>BOND
1 1 3 2
2 2 7 ar
3 3 13 1
4 3 14 1
5 2 4 ar
6 5 6 ar
7 6 9 ar
8 7 11 ar
9 5 8 ar
10 9 12 ar
11 4 10 ar
12 10 12 ar
13 8 11 ar
14 11 12 ar
15 13 15 1
16 13 18 1
17 10 14 1
18 15 19 1
19 16 17 ar
20 17 21 ar
21 17 24 1
22 17 25 1
23 19 22 1
24 16 20 ar
25 21 23 ar
26 20 22 ar
27 22 23 ar
28 18 23 1
@<TRIPOS>SUBSTRUCTURE
1	LIG1	1	GROUP	1 C	LIG
