# created with PyMOL 3.1.3.1
@<TRIPOS>MOLECULE
predicted
26 29 1                 
SMALL
USER_CHARGES
@<TRIPOS>ATOM
1	 O19	-5.674	-3.035	-21.810	O.2	1	LIG1	0.000	
2	 O20	-8.599	0.318	-20.967	O.2	1	LIG1	0.000	
3	 O21	-11.737	-0.866	-25.268	O.2	1	LIG1	0.000	
4	 O22	-12.392	0.805	-23.688	O.2	1	LIG1	0.000	
5	 N23	-5.845	-0.499	-17.684	N.2	1	LIG1	0.000	
6	 C24	-6.646	-2.320	-21.907	C.2	1	LIG1	0.000	
7	 C25	-8.085	-0.680	-21.496	C.2	1	LIG1	0.000	
8	 C26	-6.532	-0.960	-18.709	C.2	1	LIG1	0.000	
9	 C27	-2.719	1.523	-20.666	C.2	1	LIG1	0.000	
10	 C28	-3.402	1.041	-21.756	C.2	1	LIG1	0.000	
11	 C29	-4.732	0.198	-17.903	C.2	1	LIG1	0.000	
12	 C30	-3.146	1.255	-19.394	C.2	1	LIG1	0.000	
13	 C31	-4.517	0.287	-21.585	C.2	1	LIG1	0.000	
14	 C32	-6.123	-0.804	-20.025	C.2	1	LIG1	0.000	
15	 C33	-4.275	0.490	-19.185	C.2	1	LIG1	0.000	
16	 C34	-4.982	0.004	-20.285	C.2	1	LIG1	0.000	
17	 N35	-6.900	-1.260	-21.095	N.pl3	1	LIG1	0.000	
18	 N36	-7.623	-2.438	-22.825	N.pl3	1	LIG1	0.000	
19	 N37	-10.504	-0.553	-23.091	N.3	1	LIG1	0.000	
20	 C38	-7.661	-3.445	-23.881	C.3	1	LIG1	0.000	
21	 C39	-12.823	-2.990	-23.439	C.3	1	LIG1	0.000	
22	 C40	-9.031	-0.580	-23.767	C.3	1	LIG1	0.000	
23	 C41	-9.992	-1.920	-22.445	C.3	1	LIG1	0.000	
24	 C42	-8.596	-1.449	-22.630	C.3	1	LIG1	0.000	
25	 C43	-12.930	-1.614	-23.063	C.3	1	LIG1	0.000	
26	 S44	-11.897	-0.519	-23.857	S.O2	1	LIG1	0.000	
@<TRIPOS>BOND
1 5 11 ar
2 1 6 2
3 6 18 1
4 2 7 2
5 7 17 1
6 5 8 ar
7 9 10 ar
8 10 13 ar
9 11 15 ar
10 9 12 ar
11 13 16 ar
12 8 14 ar
13 14 16 ar
14 12 15 ar
15 15 16 ar
16 6 17 1
17 14 17 1
18 18 20 1
19 19 22 1
20 19 23 1
21 21 25 1
22 22 24 1
23 7 24 1
24 18 24 1
25 23 24 1
26 25 26 1
27 3 26 2
28 4 26 2
29 19 26 1
@<TRIPOS>SUBSTRUCTURE
1	LIG1	1	GROUP	1 C	LIG
