# created with PyMOL 3.1.3.1
@<TRIPOS>MOLECULE
predicted
20 22 1                 
SMALL
USER_CHARGES
@<TRIPOS>ATOM
1	 O21	8.285	1.230	20.555	O.2	1	LIG1	0.000	
2	 N22	5.933	0.044	17.280	N.2	1	LIG1	0.000	
3	 C23	8.169	0.180	21.125	C.2	1	LIG1	0.000	
4	 C24	6.633	-0.429	18.300	C.2	1	LIG1	0.000	
5	 C25	2.698	1.841	20.274	C.2	1	LIG1	0.000	
6	 C26	3.405	1.390	21.333	C.2	1	LIG1	0.000	
7	 C27	4.820	0.674	17.477	C.2	1	LIG1	0.000	
8	 C28	3.145	1.628	19.003	C.2	1	LIG1	0.000	
9	 C29	4.587	0.721	21.162	C.2	1	LIG1	0.000	
10	 C30	6.273	-0.238	19.614	C.2	1	LIG1	0.000	
11	 C31	4.326	0.947	18.770	C.2	1	LIG1	0.000	
12	 C32	5.059	0.472	19.883	C.2	1	LIG1	0.000	
13	 N33	8.973	-0.074	22.177	N.pl3	1	LIG1	0.000	
14	 C34	7.119	-0.789	20.718	C.3	1	LIG1	0.000	
15	 C35	12.863	-1.436	23.083	C.3	1	LIG1	0.000	
16	 C36	8.986	-1.322	22.903	C.3	1	LIG1	0.000	
17	 C37	9.924	0.932	22.629	C.3	1	LIG1	0.000	
18	 C38	10.395	-1.901	22.807	C.3	1	LIG1	0.000	
19	 C39	11.307	0.389	22.494	C.3	1	LIG1	0.000	
20	 C40	11.453	-0.893	23.253	C.3	1	LIG1	0.000	
@<TRIPOS>BOND
1 2 7 ar
2 1 3 2
3 3 14 1
4 2 4 ar
5 5 6 ar
6 6 9 ar
7 7 11 ar
8 5 8 ar
9 9 12 ar
10 4 10 ar
11 10 12 ar
12 8 11 ar
13 11 12 ar
14 3 13 1
15 13 17 1
16 10 14 1
17 15 20 1
18 13 16 1
19 17 19 1
20 16 18 1
21 18 20 1
22 19 20 1
@<TRIPOS>SUBSTRUCTURE
1	LIG1	1	GROUP	1 C	LIG
