# created with PyMOL 3.1.3.1
@<TRIPOS>MOLECULE
predicted
29 30 1                 
SMALL
USER_CHARGES
@<TRIPOS>ATOM
1	CL26	-13.337	-2.650	-22.592	Cl	1	LIG1	0.000	
2	 O21	-7.587	0.219	-21.586	O.2	1	LIG1	0.000	
3	 O22	-4.949	-1.791	-18.177	O.2	1	LIG1	0.000	
4	 O23	-5.620	0.426	-17.438	O.2	1	LIG1	0.000	
5	 O24	-13.084	7.119	-23.052	O.2	1	LIG1	0.000	
6	 O25	-13.679	6.731	-25.329	O.3	1	LIG1	0.000	
7	 O27	-6.937	-0.673	-19.163	O.3	1	LIG1	0.000	
8	 C28	-7.576	-0.976	-21.416	C.2	1	LIG1	0.000	
9	 C29	-12.735	2.583	-24.594	C.2	1	LIG1	0.000	
10	 C30	-11.039	3.115	-23.084	C.2	1	LIG1	0.000	
11	 C31	-12.437	-0.164	-23.232	C.2	1	LIG1	0.000	
12	 C32	-10.832	-1.922	-23.120	C.2	1	LIG1	0.000	
13	 C33	-10.196	0.295	-23.709	C.2	1	LIG1	0.000	
14	 C34	-12.986	3.938	-24.780	C.2	1	LIG1	0.000	
15	 C35	-11.338	4.461	-23.262	C.2	1	LIG1	0.000	
16	 C36	-12.119	-1.498	-23.009	C.2	1	LIG1	0.000	
17	 C37	-11.759	2.164	-23.768	C.2	1	LIG1	0.000	
18	 C38	-11.453	0.739	-23.560	C.2	1	LIG1	0.000	
19	 C39	-9.868	-1.022	-23.482	C.2	1	LIG1	0.000	
20	 C40	-12.299	4.871	-24.111	C.2	1	LIG1	0.000	
21	 N41	-7.960	-1.864	-22.315	N.pl3	1	LIG1	0.000	
22	 N42	-4.570	0.080	-19.802	N.3	1	LIG1	0.000	
23	 N43	-11.358	7.273	-24.860	N.3	1	LIG1	0.000	
24	 C44	-7.083	-1.651	-20.160	C.3	1	LIG1	0.000	
25	 C45	-3.769	1.194	-19.660	C.3	1	LIG1	0.000	
26	 C46	-8.257	-2.568	-24.656	C.3	1	LIG1	0.000	
27	 C47	-8.424	-1.430	-23.643	C.3	1	LIG1	0.000	
28	 S48	-5.484	-0.478	-18.566	S.3	1	LIG1	0.000	
29	 S49	-12.654	6.561	-24.331	S.O2	1	LIG1	0.000	
@<TRIPOS>BOND
1 7 24 1
2 2 8 2
3 8 21 1
4 9 14 ar
5 11 18 ar
6 12 16 ar
7 14 20 ar
8 10 15 ar
9 1 16 1
10 11 16 ar
11 9 17 ar
12 10 17 ar
13 13 18 ar
14 17 18 1
15 12 19 ar
16 13 19 ar
17 15 20 ar
18 20 29 1
19 21 27 1
20 22 28 1
21 8 24 1
22 22 25 1
23 19 27 1
24 26 27 1
25 3 28 2
26 4 28 2
27 7 28 1
28 5 29 2
29 6 29 1
30 23 29 1
@<TRIPOS>SUBSTRUCTURE
1	LIG1	1	GROUP	1 C	LIG
