# created with PyMOL 3.1.3.1
@<TRIPOS>MOLECULE
predicted
41 46 1                 
SMALL
USER_CHARGES
@<TRIPOS>ATOM
1	CL33	13.398	-1.855	22.050	Cl	1	LIG1	0.000	
2	 O30	9.910	3.646	23.554	O.2	1	LIG1	0.000	
3	 O31	5.225	3.152	23.481	O.2	1	LIG1	0.000	
4	 O32	8.439	1.557	20.741	O.2	1	LIG1	0.000	
5	 N34	6.114	0.231	17.266	N.2	1	LIG1	0.000	
6	 O35	6.179	9.324	22.908	O.3	1	LIG1	0.000	
7	 C36	9.575	2.460	23.505	C.2	1	LIG1	0.000	
8	 C37	6.335	3.546	23.277	C.2	1	LIG1	0.000	
9	 C38	8.055	0.518	21.244	C.2	1	LIG1	0.000	
10	 C39	6.805	-0.151	18.326	C.2	1	LIG1	0.000	
11	 C40	3.173	7.393	22.056	C.2	1	LIG1	0.000	
12	 C41	12.710	0.599	22.845	C.2	1	LIG1	0.000	
13	 C42	3.997	8.459	22.465	C.2	1	LIG1	0.000	
14	 C43	11.852	1.603	23.171	C.2	1	LIG1	0.000	
15	 C44	3.754	6.176	21.674	C.2	1	LIG1	0.000	
16	 C45	5.955	7.075	22.123	C.2	1	LIG1	0.000	
17	 C46	10.872	-0.836	22.264	C.2	1	LIG1	0.000	
18	 C47	2.732	2.048	20.106	C.2	1	LIG1	0.000	
19	 C48	3.412	1.644	21.229	C.2	1	LIG1	0.000	
20	 C49	12.235	-0.608	22.396	C.2	1	LIG1	0.000	
21	 C50	5.382	8.300	22.506	C.2	1	LIG1	0.000	
22	 C51	10.502	1.393	23.100	C.2	1	LIG1	0.000	
23	 C52	5.153	6.043	21.709	C.2	1	LIG1	0.000	
24	 C53	10.005	0.140	22.691	C.2	1	LIG1	0.000	
25	 C54	4.955	0.839	17.419	C.2	1	LIG1	0.000	
26	 C55	3.245	1.776	18.851	C.2	1	LIG1	0.000	
27	 C56	4.589	0.989	21.100	C.2	1	LIG1	0.000	
28	 C57	6.346	0.059	19.613	C.2	1	LIG1	0.000	
29	 C58	4.425	1.121	18.688	C.2	1	LIG1	0.000	
30	 C59	5.123	0.735	19.824	C.2	1	LIG1	0.000	
31	 N60	6.669	4.231	22.160	N.pl3	1	LIG1	0.000	
32	 N61	7.102	-0.275	20.697	N.pl3	1	LIG1	0.000	
33	 N62	8.260	2.136	23.732	N.pl3	1	LIG1	0.000	
34	 C63	5.637	10.408	23.505	C.3	1	LIG1	0.000	
35	 C64	7.399	3.169	24.200	C.3	1	LIG1	0.000	
36	 C65	5.722	4.750	21.227	C.3	1	LIG1	0.000	
37	 C66	7.879	-2.248	23.659	C.3	1	LIG1	0.000	
38	 C67	6.968	-1.480	21.432	C.3	1	LIG1	0.000	
39	 C68	7.815	0.738	23.740	C.3	1	LIG1	0.000	
40	 C69	8.059	-1.438	22.450	C.3	1	LIG1	0.000	
41	 C70	8.522	-0.033	22.556	C.3	1	LIG1	0.000	
@<TRIPOS>BOND
1 5 25 ar
2 6 21 1
3 2 7 2
4 3 8 2
5 8 35 1
6 4 9 2
7 9 32 1
8 5 10 ar
9 11 15 ar
10 12 14 ar
11 11 13 ar
12 14 22 ar
13 15 23 ar
14 17 20 ar
15 18 19 ar
16 19 27 ar
17 1 20 1
18 12 20 ar
19 13 21 ar
20 16 21 ar
21 7 22 1
22 16 23 ar
23 23 36 1
24 17 24 ar
25 22 24 ar
26 25 29 ar
27 18 26 ar
28 27 30 ar
29 10 28 ar
30 28 30 ar
31 26 29 ar
32 29 30 ar
33 8 31 1
34 28 32 1
35 32 38 1
36 7 33 1
37 33 39 1
38 6 34 1
39 33 35 1
40 31 36 1
41 38 40 1
42 39 41 1
43 37 40 1
44 9 41 1
45 24 41 1
46 40 41 1
@<TRIPOS>SUBSTRUCTURE
1	LIG1	1	GROUP	1 C	LIG
