# created with PyMOL 3.1.3.1
@<TRIPOS>MOLECULE
predicted
35 40 1                 
SMALL
USER_CHARGES
@<TRIPOS>ATOM
1	 O25	10.525	3.249	24.028	O.2	1	LIG1	0.000	
2	 O26	8.736	1.275	21.075	O.2	1	LIG1	0.000	
3	 N28	6.186	0.046	17.705	N.2	1	LIG1	0.000	
4	 N29	5.162	4.229	22.787	N.2	1	LIG1	0.000	
5	 C30	10.103	2.098	23.884	C.2	1	LIG1	0.000	
6	 C31	8.348	0.237	21.588	C.2	1	LIG1	0.000	
7	 C32	6.078	4.332	21.898	C.2	1	LIG1	0.000	
8	 C33	6.924	-0.339	18.738	C.2	1	LIG1	0.000	
9	 C34	13.157	0.142	22.941	C.2	1	LIG1	0.000	
10	 C35	12.348	1.172	23.366	C.2	1	LIG1	0.000	
11	 C36	11.222	-1.223	22.443	C.2	1	LIG1	0.000	
12	 C37	2.771	1.641	20.721	C.2	1	LIG1	0.000	
13	 C38	3.506	1.223	21.810	C.2	1	LIG1	0.000	
14	 C39	7.271	3.862	22.447	C.2	1	LIG1	0.000	
15	 C40	12.614	-1.047	22.488	C.2	1	LIG1	0.000	
16	 C41	10.970	1.016	23.366	C.2	1	LIG1	0.000	
17	 C42	10.395	-0.211	22.955	C.2	1	LIG1	0.000	
18	 C43	4.992	0.619	17.915	C.2	1	LIG1	0.000	
19	 C44	3.261	1.437	19.428	C.2	1	LIG1	0.000	
20	 C45	4.721	0.630	21.623	C.2	1	LIG1	0.000	
21	 C46	6.510	-0.160	20.065	C.2	1	LIG1	0.000	
22	 C47	6.988	3.460	23.732	C.2	1	LIG1	0.000	
23	 C48	4.487	0.844	19.209	C.2	1	LIG1	0.000	
24	 C49	5.243	0.439	20.323	C.2	1	LIG1	0.000	
25	 N50	7.326	-0.519	21.128	N.pl3	1	LIG1	0.000	
26	 N51	8.767	1.831	24.148	N.pl3	1	LIG1	0.000	
27	 N52	5.715	3.725	23.919	N.2	1	LIG1	0.000	
28	 C53	7.948	2.850	24.749	C.3	1	LIG1	0.000	
29	 C54	4.941	3.448	25.116	C.3	1	LIG1	0.000	
30	 C55	8.283	-2.515	24.072	C.3	1	LIG1	0.000	
31	 C56	7.206	-1.740	21.868	C.3	1	LIG1	0.000	
32	 C57	8.243	0.464	24.072	C.3	1	LIG1	0.000	
33	 C58	8.380	-1.746	22.813	C.3	1	LIG1	0.000	
34	 C59	8.887	-0.333	22.897	C.3	1	LIG1	0.000	
35	 F27	13.440	-2.016	22.088	 F	1	LIG1	0.000	
@<TRIPOS>BOND
1 3 18 ar
2 4 27 ar
3 1 5 2
4 5 16 1
5 2 6 2
6 6 34 1
7 4 7 ar
8 3 8 ar
9 9 15 ar
10 9 10 ar
11 11 17 ar
12 12 13 ar
13 13 20 ar
14 7 14 ar
15 11 15 ar
16 15 35 1
17 10 16 ar
18 16 17 ar
19 18 23 ar
20 12 19 ar
21 20 24 ar
22 8 21 ar
23 21 24 ar
24 14 22 ar
25 22 27 ar
26 19 23 ar
27 23 24 ar
28 6 25 1
29 21 25 1
30 5 26 1
31 26 28 1
32 27 29 1
33 22 28 1
34 30 33 1
35 25 31 1
36 26 32 1
37 31 33 1
38 33 34 1
39 17 34 1
40 32 34 1
@<TRIPOS>SUBSTRUCTURE
1	LIG1	1	GROUP	1 C	LIG
