# created with PyMOL 3.1.3.1
@<TRIPOS>MOLECULE
predicted
34 39 1                 
SMALL
USER_CHARGES
@<TRIPOS>ATOM
1	 O23	10.433	3.272	23.898	O.2	1	LIG1	0.000	
2	 O24	8.747	1.287	20.985	O.2	1	LIG1	0.000	
3	 N26	6.264	0.063	17.568	N.2	1	LIG1	0.000	
4	 N27	5.362	4.617	22.552	N.pl3	1	LIG1	0.000	
5	 C28	10.027	2.106	23.775	C.2	1	LIG1	0.000	
6	 C29	8.347	0.247	21.490	C.2	1	LIG1	0.000	
7	 C30	5.774	4.082	23.765	C.2	1	LIG1	0.000	
8	 C31	6.976	-0.325	18.609	C.2	1	LIG1	0.000	
9	 C32	13.113	0.194	22.895	C.2	1	LIG1	0.000	
10	 C33	12.287	1.215	23.304	C.2	1	LIG1	0.000	
11	 C34	11.199	-1.186	22.360	C.2	1	LIG1	0.000	
12	 C35	2.838	1.741	20.506	C.2	1	LIG1	0.000	
13	 C36	3.551	1.326	21.617	C.2	1	LIG1	0.000	
14	 C37	12.591	-0.997	22.428	C.2	1	LIG1	0.000	
15	 C38	10.915	1.029	23.290	C.2	1	LIG1	0.000	
16	 C39	7.000	3.536	23.539	C.2	1	LIG1	0.000	
17	 C40	10.355	-0.192	22.866	C.2	1	LIG1	0.000	
18	 C41	5.073	0.643	17.744	C.2	1	LIG1	0.000	
19	 C42	3.336	1.516	19.230	C.2	1	LIG1	0.000	
20	 C43	4.752	0.711	21.454	C.2	1	LIG1	0.000	
21	 C44	6.538	-0.127	19.926	C.2	1	LIG1	0.000	
22	 C45	7.287	3.769	22.234	C.2	1	LIG1	0.000	
23	 C46	4.554	0.893	19.043	C.2	1	LIG1	0.000	
24	 C47	5.286	0.492	20.167	C.2	1	LIG1	0.000	
25	 N48	7.327	-0.492	21.001	N.pl3	1	LIG1	0.000	
26	 N49	8.685	1.820	24.011	N.pl3	1	LIG1	0.000	
27	 N50	6.277	4.428	21.680	N.2	1	LIG1	0.000	
28	 C51	7.816	2.822	24.561	C.3	1	LIG1	0.000	
29	 C52	8.190	-2.508	23.963	C.3	1	LIG1	0.000	
30	 C53	7.182	-1.717	21.749	C.3	1	LIG1	0.000	
31	 C54	8.181	0.449	23.955	C.3	1	LIG1	0.000	
32	 C55	8.353	-1.739	22.704	C.3	1	LIG1	0.000	
33	 C56	8.852	-0.329	22.792	C.3	1	LIG1	0.000	
34	 F25	13.432	-1.938	22.046	 F	1	LIG1	0.000	
@<TRIPOS>BOND
1 3 18 ar
2 4 27 ar
3 1 5 2
4 5 15 1
5 2 6 2
6 6 33 1
7 4 7 ar
8 3 8 ar
9 9 14 ar
10 9 10 ar
11 11 17 ar
12 12 13 ar
13 13 20 ar
14 11 14 ar
15 14 34 1
16 10 15 ar
17 15 17 ar
18 7 16 ar
19 16 22 ar
20 18 23 ar
21 12 19 ar
22 20 24 ar
23 8 21 ar
24 21 24 ar
25 19 23 ar
26 23 24 ar
27 6 25 1
28 21 25 1
29 5 26 1
30 26 28 1
31 22 27 ar
32 16 28 1
33 29 32 1
34 25 30 1
35 26 31 1
36 30 32 1
37 32 33 1
38 17 33 1
39 31 33 1
@<TRIPOS>SUBSTRUCTURE
1	LIG1	1	GROUP	1 C	LIG
