# created with PyMOL 3.1.3.1
@<TRIPOS>MOLECULE
predicted
35 40 1                 
SMALL
USER_CHARGES
@<TRIPOS>ATOM
1	 O25	-10.622	2.263	-24.349	O.2	1	LIG1	0.000	
2	 O26	-8.583	0.533	-21.397	O.2	1	LIG1	0.000	
3	 N28	-6.179	-0.550	-17.929	N.2	1	LIG1	0.000	
4	 N29	-8.476	4.084	-23.524	N.2	1	LIG1	0.000	
5	 C30	-10.106	1.158	-24.138	C.2	1	LIG1	0.000	
6	 C31	-8.177	-0.520	-21.858	C.2	1	LIG1	0.000	
7	 C32	-6.865	-0.982	-18.963	C.2	1	LIG1	0.000	
8	 C33	-7.850	4.786	-22.553	C.2	1	LIG1	0.000	
9	 C34	-13.011	-0.863	-22.970	C.2	1	LIG1	0.000	
10	 C35	-12.276	0.168	-23.484	C.2	1	LIG1	0.000	
11	 C36	-10.989	-2.116	-22.517	C.2	1	LIG1	0.000	
12	 C37	-2.646	0.916	-20.867	C.2	1	LIG1	0.000	
13	 C38	-3.314	0.421	-21.952	C.2	1	LIG1	0.000	
14	 C39	-12.383	-2.001	-22.487	C.2	1	LIG1	0.000	
15	 C40	-10.888	0.067	-23.548	C.2	1	LIG1	0.000	
16	 C41	-10.235	-1.103	-23.111	C.2	1	LIG1	0.000	
17	 C42	-4.978	0.033	-18.108	C.2	1	LIG1	0.000	
18	 C43	-3.192	0.792	-19.599	C.2	1	LIG1	0.000	
19	 C44	-4.529	-0.175	-21.785	C.2	1	LIG1	0.000	
20	 C45	-6.388	-0.867	-20.268	C.2	1	LIG1	0.000	
21	 C46	-7.651	3.098	-23.904	C.2	1	LIG1	0.000	
22	 C47	-6.632	4.223	-22.272	C.2	1	LIG1	0.000	
23	 C48	-4.420	0.196	-19.393	C.2	1	LIG1	0.000	
24	 C49	-5.114	-0.280	-20.514	C.2	1	LIG1	0.000	
25	 N50	-7.168	-1.258	-21.342	N.pl3	1	LIG1	0.000	
26	 N51	-8.751	0.973	-24.396	N.pl3	1	LIG1	0.000	
27	 N52	-6.567	3.194	-23.168	N.2	1	LIG1	0.000	
28	 C53	-7.998	2.048	-24.998	C.3	1	LIG1	0.000	
29	 C54	-5.411	2.373	-23.259	C.3	1	LIG1	0.000	
30	 C55	-8.099	-3.337	-24.235	C.3	1	LIG1	0.000	
31	 C56	-7.032	-2.498	-22.034	C.3	1	LIG1	0.000	
32	 C57	-8.162	-0.360	-24.319	C.3	1	LIG1	0.000	
33	 C58	-8.167	-2.542	-23.013	C.3	1	LIG1	0.000	
34	 C59	-8.730	-1.156	-23.117	C.3	1	LIG1	0.000	
35	 F27	-13.135	-2.990	-21.999	 F	1	LIG1	0.000	
@<TRIPOS>BOND
1 3 17 ar
2 4 8 ar
3 1 5 2
4 5 15 1
5 2 6 2
6 6 34 1
7 3 7 ar
8 8 22 ar
9 9 14 ar
10 9 10 ar
11 11 16 ar
12 12 13 ar
13 13 19 ar
14 11 14 ar
15 14 35 1
16 10 15 ar
17 15 16 ar
18 17 23 ar
19 12 18 ar
20 19 24 ar
21 7 20 ar
22 20 24 ar
23 4 21 ar
24 21 27 ar
25 22 27 ar
26 18 23 ar
27 23 24 ar
28 6 25 1
29 20 25 1
30 5 26 1
31 26 28 1
32 27 29 1
33 21 28 1
34 30 33 1
35 25 31 1
36 26 32 1
37 31 33 1
38 33 34 1
39 16 34 1
40 32 34 1
@<TRIPOS>SUBSTRUCTURE
1	LIG1	1	GROUP	1 C	LIG
