# created with PyMOL 3.1.3.1
@<TRIPOS>MOLECULE
predicted
44 52 1                 
SMALL
USER_CHARGES
@<TRIPOS>ATOM
1	CL36	13.484	-2.029	22.103	Cl	1	LIG1	0.000	
2	 O34	10.364	3.497	23.907	O.2	1	LIG1	0.000	
3	 O35	8.641	1.524	20.973	O.2	1	LIG1	0.000	
4	 N37	7.154	-5.672	23.825	N.2	1	LIG1	0.000	
5	 N38	9.044	-4.735	24.916	N.2	1	LIG1	0.000	
6	 N39	6.175	0.136	17.553	N.2	1	LIG1	0.000	
7	 O40	5.234	8.715	22.303	O.3	1	LIG1	0.000	
8	 C41	9.923	2.358	23.754	C.2	1	LIG1	0.000	
9	 C42	8.237	0.495	21.472	C.2	1	LIG1	0.000	
10	 C43	7.820	-4.584	24.296	C.2	1	LIG1	0.000	
11	 C44	7.668	-6.882	23.970	C.2	1	LIG1	0.000	
12	 C45	9.537	-5.944	25.117	C.2	1	LIG1	0.000	
13	 C46	6.881	-0.229	18.616	C.2	1	LIG1	0.000	
14	 C47	8.907	-7.058	24.624	C.2	1	LIG1	0.000	
15	 C48	12.956	0.371	22.996	C.2	1	LIG1	0.000	
16	 C49	12.149	1.399	23.360	C.2	1	LIG1	0.000	
17	 C50	11.029	-0.971	22.460	C.2	1	LIG1	0.000	
18	 C51	2.816	2.049	20.418	C.2	1	LIG1	0.000	
19	 C52	3.529	1.683	21.553	C.2	1	LIG1	0.000	
20	 C53	12.410	-0.804	22.548	C.2	1	LIG1	0.000	
21	 C54	10.780	1.253	23.327	C.2	1	LIG1	0.000	
22	 C55	10.204	0.044	22.912	C.2	1	LIG1	0.000	
23	 C56	5.004	0.756	17.708	C.2	1	LIG1	0.000	
24	 C57	3.306	1.738	19.151	C.2	1	LIG1	0.000	
25	 C58	4.699	1.010	21.411	C.2	1	LIG1	0.000	
26	 C59	6.451	0.040	19.915	C.2	1	LIG1	0.000	
27	 C60	4.493	1.071	18.983	C.2	1	LIG1	0.000	
28	 C61	5.214	0.710	20.133	C.2	1	LIG1	0.000	
29	 N62	7.284	-3.322	24.134	N.pl3	1	LIG1	0.000	
30	 N63	7.242	-0.303	21.001	N.pl3	1	LIG1	0.000	
31	 N64	8.574	2.137	23.936	N.pl3	1	LIG1	0.000	
32	 C65	4.773	7.497	23.095	C.3	1	LIG1	0.000	
33	 C66	6.160	7.718	21.500	C.3	1	LIG1	0.000	
34	 C67	7.727	3.184	24.338	C.3	1	LIG1	0.000	
35	 C68	5.807	6.736	22.448	C.3	1	LIG1	0.000	
36	 C69	8.049	-2.087	24.112	C.3	1	LIG1	0.000	
37	 C70	7.095	-1.491	21.778	C.3	1	LIG1	0.000	
38	 C71	8.054	0.800	23.921	C.3	1	LIG1	0.000	
39	 C72	7.045	3.668	23.083	C.3	1	LIG1	0.000	
40	 C73	6.908	6.151	23.352	C.3	1	LIG1	0.000	
41	 C74	5.561	5.322	22.095	C.3	1	LIG1	0.000	
42	 C75	8.178	-1.454	22.815	C.3	1	LIG1	0.000	
43	 C76	8.704	-0.055	22.821	C.3	1	LIG1	0.000	
44	 N77	6.479	4.867	23.174	N.3	1	LIG1	0.000	
@<TRIPOS>BOND
1 2 8 2
2 4 11 ar
3 6 23 ar
4 7 33 1
5 8 21 1
6 8 31 1
7 3 9 2
8 9 30 1
9 4 10 ar
10 5 10 ar
11 11 14 ar
12 5 12 ar
13 6 13 ar
14 12 14 ar
15 15 20 ar
16 15 16 ar
17 17 22 ar
18 18 19 ar
19 19 25 ar
20 1 20 1
21 17 20 ar
22 16 21 ar
23 21 22 ar
24 22 43 1
25 23 27 ar
26 18 24 ar
27 25 28 ar
28 13 26 ar
29 26 28 ar
30 24 27 ar
31 27 28 ar
32 10 29 1
33 26 30 1
34 30 37 1
35 31 34 1
36 7 32 1
37 34 39 1
38 32 35 1
39 33 35 1
40 35 41 1
41 29 36 1
42 37 42 1
43 31 38 1
44 39 44 1
45 35 40 1
46 40 41 1
47 36 42 1
48 9 43 1
49 38 43 1
50 42 43 1
51 40 44 1
52 41 44 1
@<TRIPOS>SUBSTRUCTURE
1	LIG1	1	GROUP	1 C	LIG
