# created with PyMOL 3.1.3.1
@<TRIPOS>MOLECULE
predicted
28 31 1                 
SMALL
USER_CHARGES
@<TRIPOS>ATOM
1	 O27	8.413	1.066	20.805	O.2	1	LIG1	0.000	
2	 N28	6.008	0.043	17.388	N.2	1	LIG1	0.000	
3	 O29	7.710	-0.808	24.817	O.3	1	LIG1	0.000	
4	 C30	8.313	-0.033	21.267	C.2	1	LIG1	0.000	
5	 C31	6.753	-0.530	18.351	C.2	1	LIG1	0.000	
6	 C32	6.400	2.558	25.091	C.2	1	LIG1	0.000	
7	 C33	7.326	3.284	24.338	C.2	1	LIG1	0.000	
8	 C34	6.531	1.211	25.232	C.2	1	LIG1	0.000	
9	 C35	8.377	2.619	23.753	C.2	1	LIG1	0.000	
10	 C36	3.051	1.849	20.642	C.2	1	LIG1	0.000	
11	 C37	3.816	1.303	21.649	C.2	1	LIG1	0.000	
12	 C38	7.589	0.554	24.631	C.2	1	LIG1	0.000	
13	 C39	8.579	1.288	23.928	C.2	1	LIG1	0.000	
14	 C40	4.919	0.707	17.673	C.2	1	LIG1	0.000	
15	 C41	3.396	1.666	19.320	C.2	1	LIG1	0.000	
16	 C42	4.935	0.567	21.377	C.2	1	LIG1	0.000	
17	 C43	6.459	-0.412	19.703	C.2	1	LIG1	0.000	
18	 C44	4.529	0.910	19.002	C.2	1	LIG1	0.000	
19	 C45	5.306	0.350	20.036	C.2	1	LIG1	0.000	
20	 N46	9.111	-0.377	22.377	N.pl3	1	LIG1	0.000	
21	 C47	6.608	-1.552	25.337	C.3	1	LIG1	0.000	
22	 C48	7.359	-1.032	20.747	C.3	1	LIG1	0.000	
23	 C49	9.414	-1.720	22.770	C.3	1	LIG1	0.000	
24	 C50	13.072	-1.005	23.626	C.3	1	LIG1	0.000	
25	 C51	10.927	-1.926	22.856	C.3	1	LIG1	0.000	
26	 C52	11.131	0.569	23.248	C.3	1	LIG1	0.000	
27	 C53	11.605	-0.851	23.641	C.3	1	LIG1	0.000	
28	 C54	9.699	0.648	23.160	C.3	1	LIG1	0.000	
@<TRIPOS>BOND
1 2 14 ar
2 3 12 1
3 1 4 2
4 4 22 1
5 2 5 ar
6 6 7 ar
7 7 9 ar
8 6 8 ar
9 9 13 ar
10 10 11 ar
11 11 16 ar
12 8 12 ar
13 12 13 ar
14 13 28 1
15 14 18 ar
16 10 15 ar
17 16 19 ar
18 5 17 ar
19 17 19 ar
20 15 18 ar
21 18 19 ar
22 4 20 1
23 3 21 1
24 17 22 1
25 20 23 1
26 23 25 1
27 26 27 1
28 24 27 1
29 25 27 1
30 20 28 1
31 26 28 1
@<TRIPOS>SUBSTRUCTURE
1	LIG1	1	GROUP	1 C	LIG
