# created with PyMOL 3.1.3.1
@<TRIPOS>MOLECULE
predicted
41 47 1                 
SMALL
USER_CHARGES
@<TRIPOS>ATOM
1	CL26	13.412	-1.805	21.973	Cl	1	LIG1	0.000	
2	 O24	10.117	3.568	24.002	O.2	1	LIG1	0.000	
3	 O25	8.492	1.620	21.005	O.2	1	LIG1	0.000	
4	 N27	5.365	4.651	22.126	N.2	1	LIG1	0.000	
5	 N28	5.548	4.014	23.323	N.2	1	LIG1	0.000	
6	 N29	9.667	-6.686	25.176	N.2	1	LIG1	0.000	
7	 N30	9.152	-4.424	25.176	N.2	1	LIG1	0.000	
8	 N31	6.156	0.190	17.490	N.2	1	LIG1	0.000	
9	 O32	7.476	4.418	22.471	O.2	1	LIG1	0.000	
10	 C33	9.720	2.414	23.842	C.2	1	LIG1	0.000	
11	 C34	8.113	0.575	21.483	C.2	1	LIG1	0.000	
12	 C35	9.836	-5.442	25.634	C.2	1	LIG1	0.000	
13	 C36	6.528	4.892	21.646	C.2	1	LIG1	0.000	
14	 C37	6.827	3.855	23.491	C.2	1	LIG1	0.000	
15	 C38	8.723	-6.929	24.240	C.2	1	LIG1	0.000	
16	 C39	6.848	-0.176	18.559	C.2	1	LIG1	0.000	
17	 C40	8.203	-4.584	24.232	C.2	1	LIG1	0.000	
18	 C41	7.961	-5.873	23.723	C.2	1	LIG1	0.000	
19	 C42	12.827	0.566	22.935	C.2	1	LIG1	0.000	
20	 C43	11.980	1.560	23.349	C.2	1	LIG1	0.000	
21	 C44	10.936	-0.824	22.394	C.2	1	LIG1	0.000	
22	 C45	2.761	2.109	20.287	C.2	1	LIG1	0.000	
23	 C46	3.447	1.735	21.432	C.2	1	LIG1	0.000	
24	 C47	12.317	-0.621	22.461	C.2	1	LIG1	0.000	
25	 C48	10.615	1.368	23.338	C.2	1	LIG1	0.000	
26	 C49	10.083	0.149	22.892	C.2	1	LIG1	0.000	
27	 C50	4.995	0.808	17.626	C.2	1	LIG1	0.000	
28	 C51	3.266	1.802	19.023	C.2	1	LIG1	0.000	
29	 C52	4.638	1.074	21.321	C.2	1	LIG1	0.000	
30	 C53	6.407	0.111	19.852	C.2	1	LIG1	0.000	
31	 C54	4.462	1.137	18.889	C.2	1	LIG1	0.000	
32	 C55	5.161	0.779	20.048	C.2	1	LIG1	0.000	
33	 N56	7.522	-3.553	23.740	N.pl3	1	LIG1	0.000	
34	 N57	7.162	-0.230	20.946	N.pl3	1	LIG1	0.000	
35	 N58	8.384	2.120	24.066	N.pl3	1	LIG1	0.000	
36	 C59	7.504	3.103	24.605	C.3	1	LIG1	0.000	
37	 C60	7.842	-2.124	23.945	C.3	1	LIG1	0.000	
38	 C61	7.052	-1.464	21.640	C.3	1	LIG1	0.000	
39	 C62	7.902	0.773	23.956	C.3	1	LIG1	0.000	
40	 C63	8.137	-1.425	22.711	C.3	1	LIG1	0.000	
41	 C64	8.589	-0.005	22.793	C.3	1	LIG1	0.000	
@<TRIPOS>BOND
1 2 10 2
2 4 13 ar
3 4 5 ar
4 6 12 ar
5 8 27 ar
6 10 25 1
7 10 35 1
8 3 11 2
9 11 34 1
10 7 12 ar
11 9 13 ar
12 5 14 ar
13 9 14 ar
14 6 15 ar
15 8 16 ar
16 7 17 ar
17 17 18 ar
18 15 18 ar
19 19 24 ar
20 19 20 ar
21 21 26 ar
22 22 23 ar
23 23 29 ar
24 1 24 1
25 21 24 ar
26 20 25 ar
27 25 26 ar
28 26 41 1
29 27 31 ar
30 22 28 ar
31 29 32 ar
32 16 30 ar
33 30 32 ar
34 28 31 ar
35 31 32 ar
36 17 33 1
37 30 34 1
38 34 38 1
39 35 36 1
40 14 36 1
41 33 37 1
42 38 40 1
43 35 39 1
44 37 40 1
45 11 41 1
46 39 41 1
47 40 41 1
@<TRIPOS>SUBSTRUCTURE
1	LIG1	1	GROUP	1 C	LIG
