# created with PyMOL 3.1.3.1
@<TRIPOS>MOLECULE
predicted
34 39 1                 
SMALL
USER_CHARGES
@<TRIPOS>ATOM
1	 O23	-10.689	2.364	-24.410	O.2	1	LIG1	0.000	
2	 O24	-8.641	0.640	-21.459	O.2	1	LIG1	0.000	
3	 N26	-6.140	-0.450	-17.995	N.2	1	LIG1	0.000	
4	 N27	-5.829	2.865	-24.479	N.pl3	1	LIG1	0.000	
5	 C28	-10.175	1.234	-24.223	C.2	1	LIG1	0.000	
6	 C29	-8.214	-0.405	-21.930	C.2	1	LIG1	0.000	
7	 C30	-6.830	-0.889	-19.025	C.2	1	LIG1	0.000	
8	 C31	-7.098	2.715	-24.233	C.2	1	LIG1	0.000	
9	 C32	-13.044	-0.784	-22.940	C.2	1	LIG1	0.000	
10	 C33	-12.328	0.242	-23.501	C.2	1	LIG1	0.000	
11	 C34	-10.990	-2.024	-22.504	C.2	1	LIG1	0.000	
12	 C35	-2.767	1.293	-20.991	C.2	1	LIG1	0.000	
13	 C36	-3.454	0.811	-22.082	C.2	1	LIG1	0.000	
14	 C37	-7.378	3.207	-23.003	C.2	1	LIG1	0.000	
15	 C38	-12.388	-1.922	-22.443	C.2	1	LIG1	0.000	
16	 C39	-10.936	0.138	-23.587	C.2	1	LIG1	0.000	
17	 C40	-10.267	-1.025	-23.156	C.2	1	LIG1	0.000	
18	 C41	-4.968	0.191	-18.189	C.2	1	LIG1	0.000	
19	 C42	-3.257	1.093	-19.706	C.2	1	LIG1	0.000	
20	 C43	-4.633	0.164	-21.902	C.2	1	LIG1	0.000	
21	 C44	-6.400	-0.696	-20.348	C.2	1	LIG1	0.000	
22	 C45	-6.173	3.635	-22.468	C.2	1	LIG1	0.000	
23	 C46	-4.452	0.427	-19.495	C.2	1	LIG1	0.000	
24	 C47	-5.162	-0.036	-20.610	C.2	1	LIG1	0.000	
25	 N48	-7.175	-1.108	-21.413	N.pl3	1	LIG1	0.000	
26	 N49	-8.832	1.033	-24.538	N.pl3	1	LIG1	0.000	
27	 N50	-5.265	3.416	-23.380	N.2	1	LIG1	0.000	
28	 C51	-8.077	2.071	-25.207	C.3	1	LIG1	0.000	
29	 C52	-8.084	-3.251	-24.286	C.3	1	LIG1	0.000	
30	 C53	-7.009	-2.356	-22.109	C.3	1	LIG1	0.000	
31	 C54	-8.214	-0.290	-24.417	C.3	1	LIG1	0.000	
32	 C55	-8.165	-2.437	-23.059	C.3	1	LIG1	0.000	
33	 C56	-8.761	-1.064	-23.181	C.3	1	LIG1	0.000	
34	 F25	-13.111	-2.886	-21.915	 F	1	LIG1	0.000	
@<TRIPOS>BOND
1 3 18 ar
2 1 5 2
3 5 16 1
4 2 6 2
5 6 33 1
6 3 7 ar
7 4 8 ar
8 8 14 ar
9 9 15 ar
10 9 10 ar
11 11 17 ar
12 12 13 ar
13 13 20 ar
14 14 22 ar
15 11 15 ar
16 15 34 1
17 10 16 ar
18 16 17 ar
19 18 23 ar
20 12 19 ar
21 20 24 ar
22 7 21 ar
23 21 24 ar
24 22 27 ar
25 19 23 ar
26 23 24 ar
27 6 25 1
28 21 25 1
29 5 26 1
30 26 28 1
31 4 27 ar
32 8 28 1
33 29 32 1
34 25 30 1
35 26 31 1
36 30 32 1
37 32 33 1
38 17 33 1
39 31 33 1
@<TRIPOS>SUBSTRUCTURE
1	LIG1	1	GROUP	1 C	LIG
