# created with PyMOL 3.1.3.1
@<TRIPOS>MOLECULE
predicted
22 25 1                 
SMALL
USER_CHARGES
@<TRIPOS>ATOM
1	 O23	-8.122	0.330	-21.193	O.2	1	LIG1	0.000	
2	 N24	-5.907	-0.587	-17.750	N.2	1	LIG1	0.000	
3	 C25	-7.905	-0.731	-21.716	C.2	1	LIG1	0.000	
4	 C26	-6.526	-1.168	-18.780	C.2	1	LIG1	0.000	
5	 C27	-2.733	1.367	-20.703	C.2	1	LIG1	0.000	
6	 C28	-3.349	0.798	-21.768	C.2	1	LIG1	0.000	
7	 C29	-4.845	0.133	-17.935	C.2	1	LIG1	0.000	
8	 C30	-3.213	1.162	-19.423	C.2	1	LIG1	0.000	
9	 C31	-4.462	0.031	-21.602	C.2	1	LIG1	0.000	
10	 C32	-6.097	-1.017	-20.039	C.2	1	LIG1	0.000	
11	 C33	-4.329	0.379	-19.207	C.2	1	LIG1	0.000	
12	 C34	-4.967	-0.211	-20.323	C.2	1	LIG1	0.000	
13	 N35	-8.572	-1.046	-22.845	N.pl3	1	LIG1	0.000	
14	 C36	-6.876	-1.666	-21.174	C.3	1	LIG1	0.000	
15	 C37	-9.340	-0.036	-23.540	C.3	1	LIG1	0.000	
16	 C38	-8.645	-2.378	-23.386	C.3	1	LIG1	0.000	
17	 C39	-10.780	-0.372	-23.335	C.3	1	LIG1	0.000	
18	 C40	-10.098	-2.794	-23.171	C.3	1	LIG1	0.000	
19	 C41	-13.266	-2.712	-24.654	C.3	1	LIG1	0.000	
20	 C42	-12.981	-3.479	-23.491	C.3	1	LIG1	0.000	
21	 C43	-11.037	-1.780	-23.793	C.3	1	LIG1	0.000	
22	 C44	-12.532	-2.074	-23.498	C.3	1	LIG1	0.000	
@<TRIPOS>BOND
1 1 3 2
2 2 7 ar
3 3 13 1
4 3 14 1
5 2 4 ar
6 5 6 ar
7 6 9 ar
8 7 11 ar
9 5 8 ar
10 9 12 ar
11 4 10 ar
12 10 12 ar
13 8 11 ar
14 11 12 ar
15 13 15 1
16 13 16 1
17 10 14 1
18 15 17 1
19 17 21 1
20 16 18 1
21 19 20 1
22 18 21 1
23 21 22 1
24 19 22 1
25 20 22 1
@<TRIPOS>SUBSTRUCTURE
1	LIG1	1	GROUP	1 C	LIG
