# created with PyMOL 3.1.3.1
@<TRIPOS>MOLECULE
predicted
36 41 1                 
SMALL
USER_CHARGES
@<TRIPOS>ATOM
1	 O25	-10.557	2.118	-24.626	O.2	1	LIG1	0.000	
2	 O26	-8.530	0.550	-21.530	O.2	1	LIG1	0.000	
3	 N28	-6.736	3.709	-22.324	N.2	1	LIG1	0.000	
4	 N29	-5.778	2.687	-24.668	N.2	1	LIG1	0.000	
5	 N30	-6.113	-0.495	-17.946	N.2	1	LIG1	0.000	
6	 C31	-10.042	1.018	-24.364	C.2	1	LIG1	0.000	
7	 C32	-8.122	-0.514	-21.939	C.2	1	LIG1	0.000	
8	 C33	-4.961	3.333	-23.826	C.2	1	LIG1	0.000	
9	 C34	-7.538	3.056	-23.195	C.2	1	LIG1	0.000	
10	 C35	-6.793	-0.948	-18.983	C.2	1	LIG1	0.000	
11	 C36	-5.448	3.881	-22.661	C.2	1	LIG1	0.000	
12	 C37	-7.060	2.540	-24.372	C.2	1	LIG1	0.000	
13	 C38	-12.917	-0.914	-23.011	C.2	1	LIG1	0.000	
14	 C39	-12.198	0.069	-23.609	C.2	1	LIG1	0.000	
15	 C40	-10.897	-2.132	-22.477	C.2	1	LIG1	0.000	
16	 C41	-2.720	1.194	-20.920	C.2	1	LIG1	0.000	
17	 C42	-3.409	0.707	-22.021	C.2	1	LIG1	0.000	
18	 C43	-12.282	-2.022	-22.441	C.2	1	LIG1	0.000	
19	 C44	-10.808	-0.032	-23.676	C.2	1	LIG1	0.000	
20	 C45	-10.158	-1.170	-23.166	C.2	1	LIG1	0.000	
21	 C46	-4.944	0.141	-18.143	C.2	1	LIG1	0.000	
22	 C47	-3.224	1.005	-19.640	C.2	1	LIG1	0.000	
23	 C48	-4.591	0.069	-21.848	C.2	1	LIG1	0.000	
24	 C49	-6.354	-0.773	-20.310	C.2	1	LIG1	0.000	
25	 C50	-4.420	0.353	-19.441	C.2	1	LIG1	0.000	
26	 C51	-5.114	-0.115	-20.555	C.2	1	LIG1	0.000	
27	 N52	-7.118	-1.223	-21.384	N.pl3	1	LIG1	0.000	
28	 N53	-8.708	0.791	-24.646	N.pl3	1	LIG1	0.000	
29	 C54	-4.553	4.658	-21.762	C.3	1	LIG1	0.000	
30	 C55	-7.959	1.787	-25.350	C.3	1	LIG1	0.000	
31	 C56	-8.059	-3.469	-24.161	C.3	1	LIG1	0.000	
32	 C57	-6.950	-2.494	-22.018	C.3	1	LIG1	0.000	
33	 C58	-8.092	-0.520	-24.433	C.3	1	LIG1	0.000	
34	 C59	-8.075	-2.589	-22.991	C.3	1	LIG1	0.000	
35	 C60	-8.661	-1.219	-23.165	C.3	1	LIG1	0.000	
36	 F27	-13.015	-2.958	-21.873	 F	1	LIG1	0.000	
@<TRIPOS>BOND
1 4 12 ar
2 5 21 ar
3 1 6 2
4 2 7 2
5 7 27 1
6 4 8 ar
7 3 9 ar
8 5 10 ar
9 3 11 ar
10 8 11 ar
11 9 12 ar
12 12 30 1
13 13 14 ar
14 14 19 ar
15 15 18 ar
16 16 17 ar
17 17 23 ar
18 13 18 ar
19 18 36 1
20 6 19 1
21 15 20 ar
22 19 20 ar
23 21 25 ar
24 16 22 ar
25 23 26 ar
26 10 24 ar
27 24 26 ar
28 22 25 ar
29 25 26 ar
30 24 27 1
31 27 32 1
32 6 28 1
33 28 33 1
34 11 29 1
35 28 30 1
36 32 34 1
37 33 35 1
38 31 34 1
39 7 35 1
40 20 35 1
41 34 35 1
@<TRIPOS>SUBSTRUCTURE
1	LIG1	1	GROUP	1 C	LIG
