# created with PyMOL 3.1.3.1
@<TRIPOS>MOLECULE
predicted
39 44 1                 
SMALL
USER_CHARGES
@<TRIPOS>ATOM
1	CL31	13.509	-1.871	21.944	Cl	1	LIG1	0.000	
2	 O28	10.082	3.554	23.684	O.2	1	LIG1	0.000	
3	 O29	6.611	5.101	23.833	O.2	1	LIG1	0.000	
4	 O30	8.505	1.496	20.791	O.2	1	LIG1	0.000	
5	 N32	6.179	0.020	17.341	N.2	1	LIG1	0.000	
6	 C33	9.697	2.385	23.580	C.2	1	LIG1	0.000	
7	 C34	7.038	4.157	23.347	C.2	1	LIG1	0.000	
8	 C35	8.141	0.450	21.299	C.2	1	LIG1	0.000	
9	 C36	6.886	-0.330	18.409	C.2	1	LIG1	0.000	
10	 C37	8.369	-6.510	23.950	C.2	1	LIG1	0.000	
11	 C38	9.292	-5.687	24.613	C.2	1	LIG1	0.000	
12	 C39	7.300	-5.946	23.262	C.2	1	LIG1	0.000	
13	 C40	12.849	0.555	22.804	C.2	1	LIG1	0.000	
14	 C41	11.990	1.552	23.169	C.2	1	LIG1	0.000	
15	 C42	9.125	-4.297	24.593	C.2	1	LIG1	0.000	
16	 C43	7.141	-4.540	23.245	C.2	1	LIG1	0.000	
17	 C44	10.984	-0.878	22.282	C.2	1	LIG1	0.000	
18	 C45	2.767	1.895	20.176	C.2	1	LIG1	0.000	
19	 C46	3.479	1.540	21.317	C.2	1	LIG1	0.000	
20	 C47	12.356	-0.659	22.360	C.2	1	LIG1	0.000	
21	 C48	10.628	1.339	23.151	C.2	1	LIG1	0.000	
22	 C49	8.059	-3.721	23.887	C.2	1	LIG1	0.000	
23	 C50	10.115	0.097	22.741	C.2	1	LIG1	0.000	
24	 C51	4.995	0.615	17.485	C.2	1	LIG1	0.000	
25	 C52	3.265	1.597	18.917	C.2	1	LIG1	0.000	
26	 C53	4.671	0.889	21.202	C.2	1	LIG1	0.000	
27	 C54	6.421	-0.069	19.704	C.2	1	LIG1	0.000	
28	 C55	4.464	0.938	18.765	C.2	1	LIG1	0.000	
29	 C56	5.178	0.593	19.913	C.2	1	LIG1	0.000	
30	 N57	7.184	4.185	22.043	N.pl3	1	LIG1	0.000	
31	 N58	7.195	-0.385	20.790	N.pl3	1	LIG1	0.000	
32	 N59	8.332	2.071	23.766	N.pl3	1	LIG1	0.000	
33	 C60	6.748	5.306	21.255	C.3	1	LIG1	0.000	
34	 C61	7.370	3.004	24.191	C.3	1	LIG1	0.000	
35	 C62	7.924	-2.188	23.887	C.3	1	LIG1	0.000	
36	 C63	7.103	-1.603	21.540	C.3	1	LIG1	0.000	
37	 C64	7.880	0.705	23.753	C.3	1	LIG1	0.000	
38	 C65	8.187	-1.528	22.601	C.3	1	LIG1	0.000	
39	 C66	8.614	-0.094	22.625	C.3	1	LIG1	0.000	
@<TRIPOS>BOND
1 5 24 ar
2 2 6 2
3 3 7 2
4 7 34 1
5 4 8 2
6 8 31 1
7 5 9 ar
8 10 12 ar
9 10 11 ar
10 12 16 ar
11 13 14 ar
12 14 21 ar
13 11 15 ar
14 17 20 ar
15 18 19 ar
16 19 26 ar
17 1 20 1
18 13 20 ar
19 6 21 1
20 15 22 ar
21 16 22 ar
22 17 23 ar
23 21 23 ar
24 24 28 ar
25 18 25 ar
26 26 29 ar
27 9 27 ar
28 27 29 ar
29 25 28 ar
30 28 29 ar
31 7 30 1
32 27 31 1
33 31 36 1
34 6 32 1
35 32 37 1
36 30 33 1
37 32 34 1
38 22 35 1
39 36 38 1
40 37 39 1
41 35 38 1
42 8 39 1
43 23 39 1
44 38 39 1
@<TRIPOS>SUBSTRUCTURE
1	LIG1	1	GROUP	1 C	LIG
