# created with PyMOL 3.1.3.1
@<TRIPOS>MOLECULE
predicted
34 39 1                 
SMALL
USER_CHARGES
@<TRIPOS>ATOM
1	 O22	10.722	3.126	23.820	O.2	1	LIG1	0.000	
2	 O23	8.874	1.214	20.914	O.2	1	LIG1	0.000	
3	 N25	7.642	3.745	22.171	N.2	1	LIG1	0.000	
4	 N26	6.357	-0.000	17.516	N.2	1	LIG1	0.000	
5	 O27	5.539	4.197	22.390	O.2	1	LIG1	0.000	
6	 C28	10.278	1.983	23.694	C.2	1	LIG1	0.000	
7	 C29	8.483	0.183	21.430	C.2	1	LIG1	0.000	
8	 C30	6.559	4.250	21.592	C.2	1	LIG1	0.000	
9	 C31	7.076	-0.386	18.558	C.2	1	LIG1	0.000	
10	 C32	7.310	3.389	23.392	C.2	1	LIG1	0.000	
11	 C33	5.953	3.711	23.584	C.2	1	LIG1	0.000	
12	 C34	13.278	-0.007	22.744	C.2	1	LIG1	0.000	
13	 C35	12.496	1.028	23.167	C.2	1	LIG1	0.000	
14	 C36	11.322	-1.328	22.254	C.2	1	LIG1	0.000	
15	 C37	2.950	1.682	20.451	C.2	1	LIG1	0.000	
16	 C38	3.655	1.259	21.556	C.2	1	LIG1	0.000	
17	 C39	12.713	-1.178	22.291	C.2	1	LIG1	0.000	
18	 C40	11.118	0.891	23.186	C.2	1	LIG1	0.000	
19	 C41	10.510	-0.309	22.767	C.2	1	LIG1	0.000	
20	 C42	5.174	0.584	17.695	C.2	1	LIG1	0.000	
21	 C43	3.450	1.455	19.177	C.2	1	LIG1	0.000	
22	 C44	4.860	0.640	21.396	C.2	1	LIG1	0.000	
23	 C45	6.645	-0.197	19.869	C.2	1	LIG1	0.000	
24	 C46	4.667	0.836	18.983	C.2	1	LIG1	0.000	
25	 C47	5.396	0.431	20.109	C.2	1	LIG1	0.000	
26	 N48	7.443	-0.556	20.946	N.pl3	1	LIG1	0.000	
27	 N49	8.931	1.746	23.942	N.pl3	1	LIG1	0.000	
28	 C50	8.097	2.768	24.490	C.3	1	LIG1	0.000	
29	 C51	8.343	-2.561	23.903	C.3	1	LIG1	0.000	
30	 C52	7.303	-1.777	21.692	C.3	1	LIG1	0.000	
31	 C53	8.390	0.390	23.905	C.3	1	LIG1	0.000	
32	 C54	8.458	-1.793	22.657	C.3	1	LIG1	0.000	
33	 C55	9.007	-0.401	22.724	C.3	1	LIG1	0.000	
34	 F24	13.514	-2.162	21.883	 F	1	LIG1	0.000	
@<TRIPOS>BOND
1 4 20 ar
2 5 8 ar
3 1 6 2
4 6 18 1
5 2 7 2
6 7 33 1
7 3 8 ar
8 4 9 ar
9 3 10 ar
10 10 11 ar
11 5 11 ar
12 12 17 ar
13 12 13 ar
14 14 19 ar
15 15 16 ar
16 16 22 ar
17 14 17 ar
18 17 34 1
19 13 18 ar
20 18 19 ar
21 20 24 ar
22 15 21 ar
23 22 25 ar
24 9 23 ar
25 23 25 ar
26 21 24 ar
27 24 25 ar
28 7 26 1
29 23 26 1
30 6 27 1
31 27 28 1
32 10 28 1
33 29 32 1
34 26 30 1
35 27 31 1
36 30 32 1
37 32 33 1
38 19 33 1
39 31 33 1
@<TRIPOS>SUBSTRUCTURE
1	LIG1	1	GROUP	1 C	LIG
