# created with PyMOL 3.1.3.1
@<TRIPOS>MOLECULE
predicted
38 44 1                 
SMALL
USER_CHARGES
@<TRIPOS>ATOM
1	CL35	13.623	-2.036	22.042	Cl	1	LIG1	0.000	
2	 O33	10.328	3.414	23.974	O.2	1	LIG1	0.000	
3	 O34	8.647	1.446	21.068	O.2	1	LIG1	0.000	
4	 N36	6.240	0.092	17.638	N.2	1	LIG1	0.000	
5	 O37	5.374	8.567	21.699	O.3	1	LIG1	0.000	
6	 C38	9.944	2.256	23.850	C.2	1	LIG1	0.000	
7	 C39	8.285	0.398	21.576	C.2	1	LIG1	0.000	
8	 C40	6.951	-0.274	18.691	C.2	1	LIG1	0.000	
9	 C41	13.041	0.369	22.994	C.2	1	LIG1	0.000	
10	 C42	12.210	1.381	23.389	C.2	1	LIG1	0.000	
11	 C43	11.143	-1.011	22.460	C.2	1	LIG1	0.000	
12	 C44	2.857	1.880	20.511	C.2	1	LIG1	0.000	
13	 C45	3.561	1.495	21.630	C.2	1	LIG1	0.000	
14	 C46	12.524	-0.812	22.526	C.2	1	LIG1	0.000	
15	 C47	10.846	1.187	23.385	C.2	1	LIG1	0.000	
16	 C48	10.302	-0.031	22.949	C.2	1	LIG1	0.000	
17	 C49	5.065	0.696	17.808	C.2	1	LIG1	0.000	
18	 C50	3.357	1.612	19.252	C.2	1	LIG1	0.000	
19	 C51	4.738	0.864	21.482	C.2	1	LIG1	0.000	
20	 C52	6.514	-0.053	19.996	C.2	1	LIG1	0.000	
21	 C53	4.549	0.972	19.084	C.2	1	LIG1	0.000	
22	 C54	5.272	0.599	20.212	C.2	1	LIG1	0.000	
23	 N55	7.302	-0.383	21.075	N.pl3	1	LIG1	0.000	
24	 N56	8.602	1.979	24.041	N.pl3	1	LIG1	0.000	
25	 C57	5.656	7.890	22.981	C.3	1	LIG1	0.000	
26	 C58	5.556	7.204	20.993	C.3	1	LIG1	0.000	
27	 C59	7.703	2.994	24.420	C.3	1	LIG1	0.000	
28	 C60	4.422	5.750	22.692	C.3	1	LIG1	0.000	
29	 C61	5.643	6.604	22.301	C.3	1	LIG1	0.000	
30	 C62	8.202	-2.344	24.039	C.3	1	LIG1	0.000	
31	 C63	7.197	-1.589	21.825	C.3	1	LIG1	0.000	
32	 C64	8.145	0.613	24.035	C.3	1	LIG1	0.000	
33	 C65	7.123	3.496	23.088	C.3	1	LIG1	0.000	
34	 C66	4.960	4.450	23.161	C.3	1	LIG1	0.000	
35	 C67	6.826	5.756	22.493	C.3	1	LIG1	0.000	
36	 C68	8.337	-1.570	22.794	C.3	1	LIG1	0.000	
37	 C69	8.806	-0.161	22.870	C.3	1	LIG1	0.000	
38	 N70	6.360	4.611	23.191	N.3	1	LIG1	0.000	
@<TRIPOS>BOND
1 4 17 ar
2 5 26 1
3 2 6 2
4 6 15 1
5 3 7 2
6 7 37 1
7 4 8 ar
8 9 14 ar
9 9 10 ar
10 11 16 ar
11 12 13 ar
12 13 19 ar
13 1 14 1
14 11 14 ar
15 10 15 ar
16 15 16 ar
17 17 21 ar
18 12 18 ar
19 19 22 ar
20 8 20 ar
21 20 22 ar
22 18 21 ar
23 21 22 ar
24 7 23 1
25 20 23 1
26 6 24 1
27 24 27 1
28 5 25 1
29 27 33 1
30 28 29 1
31 25 29 1
32 26 29 1
33 29 35 1
34 30 36 1
35 23 31 1
36 24 32 1
37 33 38 1
38 28 34 1
39 31 36 1
40 36 37 1
41 16 37 1
42 32 37 1
43 34 38 1
44 35 38 1
@<TRIPOS>SUBSTRUCTURE
1	LIG1	1	GROUP	1 C	LIG
