# created with PyMOL 3.1.3.1
@<TRIPOS>MOLECULE
predicted
31 34 1                 
SMALL
USER_CHARGES
@<TRIPOS>ATOM
1	CL23	13.391	-1.633	20.491	Cl	1	LIG1	0.000	
2	 N21	9.053	-6.612	26.462	N.2	1	LIG1	0.000	
3	 O22	8.174	1.069	20.587	O.2	1	LIG1	0.000	
4	 C24	8.758	-5.543	25.835	C.2	1	LIG1	0.000	
5	 N25	5.869	0.088	17.156	N.2	1	LIG1	0.000	
6	 C26	7.869	0.010	21.156	C.2	1	LIG1	0.000	
7	 C27	6.507	-0.472	18.188	C.2	1	LIG1	0.000	
8	 C28	12.603	-0.828	24.322	C.2	1	LIG1	0.000	
9	 C29	13.239	-1.249	23.155	C.2	1	LIG1	0.000	
10	 C30	7.190	-1.420	24.046	C.2	1	LIG1	0.000	
11	 C31	8.956	-2.584	22.939	C.2	1	LIG1	0.000	
12	 C32	6.934	-2.535	24.803	C.2	1	LIG1	0.000	
13	 C33	8.718	-3.701	23.675	C.2	1	LIG1	0.000	
14	 C34	11.351	-0.234	24.203	C.2	1	LIG1	0.000	
15	 C35	11.367	-0.515	21.830	C.2	1	LIG1	0.000	
16	 C36	2.625	1.964	20.086	C.2	1	LIG1	0.000	
17	 C37	3.272	1.432	21.169	C.2	1	LIG1	0.000	
18	 C38	12.620	-1.100	21.929	C.2	1	LIG1	0.000	
19	 C39	8.192	-1.453	23.110	C.2	1	LIG1	0.000	
20	 C40	7.727	-3.708	24.636	C.2	1	LIG1	0.000	
21	 C41	10.783	-0.037	22.961	C.2	1	LIG1	0.000	
22	 C42	4.773	0.768	17.328	C.2	1	LIG1	0.000	
23	 C43	3.110	1.754	18.818	C.2	1	LIG1	0.000	
24	 C44	4.423	0.680	21.022	C.2	1	LIG1	0.000	
25	 C45	6.089	-0.323	19.483	C.2	1	LIG1	0.000	
26	 C46	4.253	0.998	18.613	C.2	1	LIG1	0.000	
27	 C47	4.930	0.446	19.727	C.2	1	LIG1	0.000	
28	 N48	8.441	-0.284	22.338	N.pl3	1	LIG1	0.000	
29	 C49	7.498	-4.916	25.435	C.3	1	LIG1	0.000	
30	 C50	6.882	-0.958	20.599	C.3	1	LIG1	0.000	
31	 C51	9.433	0.635	22.897	C.3	1	LIG1	0.000	
@<TRIPOS>BOND
1 2 4 2
2 4 29 1
3 5 22 ar
4 3 6 2
5 6 30 1
6 5 7 ar
7 8 9 ar
8 9 18 ar
9 10 19 ar
10 11 13 ar
11 10 12 ar
12 8 14 ar
13 16 17 ar
14 17 24 ar
15 1 18 1
16 15 18 ar
17 11 19 ar
18 19 28 1
19 12 20 ar
20 13 20 ar
21 14 21 ar
22 15 21 ar
23 22 26 ar
24 16 23 ar
25 24 27 ar
26 7 25 ar
27 25 27 ar
28 23 26 ar
29 26 27 ar
30 6 28 1
31 28 31 1
32 20 29 1
33 25 30 1
34 21 31 1
@<TRIPOS>SUBSTRUCTURE
1	LIG1	1	GROUP	1 C	LIG
