# created with PyMOL 3.1.3.1
@<TRIPOS>MOLECULE
predicted
36 41 1                 
SMALL
USER_CHARGES
@<TRIPOS>ATOM
1	CL33	13.618	-1.995	22.085	Cl	1	LIG1	0.000	
2	 O31	10.337	3.651	23.511	O.2	1	LIG1	0.000	
3	 O32	8.640	1.487	20.787	O.2	1	LIG1	0.000	
4	 N34	6.239	0.001	17.419	N.2	1	LIG1	0.000	
5	 O35	4.405	6.857	22.140	O.3	1	LIG1	0.000	
6	 C36	9.937	2.480	23.463	C.2	1	LIG1	0.000	
7	 C37	8.287	0.455	21.341	C.2	1	LIG1	0.000	
8	 C38	6.954	-0.337	18.480	C.2	1	LIG1	0.000	
9	 C39	13.029	0.519	22.775	C.2	1	LIG1	0.000	
10	 C40	12.203	1.558	23.072	C.2	1	LIG1	0.000	
11	 C41	11.126	-0.903	22.356	C.2	1	LIG1	0.000	
12	 C42	2.897	1.962	20.258	C.2	1	LIG1	0.000	
13	 C43	3.619	1.604	21.377	C.2	1	LIG1	0.000	
14	 C44	12.511	-0.700	22.412	C.2	1	LIG1	0.000	
15	 C45	10.839	1.374	23.080	C.2	1	LIG1	0.000	
16	 C46	10.289	0.119	22.762	C.2	1	LIG1	0.000	
17	 C47	5.069	0.613	17.571	C.2	1	LIG1	0.000	
18	 C48	3.377	1.625	18.997	C.2	1	LIG1	0.000	
19	 C49	4.788	0.934	21.243	C.2	1	LIG1	0.000	
20	 C50	6.524	-0.074	19.785	C.2	1	LIG1	0.000	
21	 C51	4.561	0.950	18.839	C.2	1	LIG1	0.000	
22	 C52	5.293	0.611	19.988	C.2	1	LIG1	0.000	
23	 N53	7.321	-0.366	20.883	N.pl3	1	LIG1	0.000	
24	 N54	8.586	2.217	23.663	N.pl3	1	LIG1	0.000	
25	 C55	5.758	7.106	21.714	C.3	1	LIG1	0.000	
26	 C56	4.406	6.199	23.458	C.3	1	LIG1	0.000	
27	 C57	7.684	3.275	23.977	C.3	1	LIG1	0.000	
28	 C58	8.132	-2.117	23.962	C.3	1	LIG1	0.000	
29	 C59	7.213	-1.529	21.666	C.3	1	LIG1	0.000	
30	 C60	8.129	0.865	23.768	C.3	1	LIG1	0.000	
31	 C61	6.410	5.769	21.509	C.3	1	LIG1	0.000	
32	 C62	5.105	4.850	23.341	C.3	1	LIG1	0.000	
33	 C63	7.145	3.819	22.675	C.3	1	LIG1	0.000	
34	 C64	8.322	-1.429	22.682	C.3	1	LIG1	0.000	
35	 C65	8.794	-0.017	22.679	C.3	1	LIG1	0.000	
36	 N66	6.458	5.053	22.828	N.3	1	LIG1	0.000	
@<TRIPOS>BOND
1 4 17 ar
2 5 26 1
3 2 6 2
4 6 15 1
5 3 7 2
6 7 35 1
7 4 8 ar
8 9 14 ar
9 9 10 ar
10 11 16 ar
11 12 13 ar
12 13 19 ar
13 1 14 1
14 11 14 ar
15 10 15 ar
16 15 16 ar
17 17 21 ar
18 12 18 ar
19 19 22 ar
20 8 20 ar
21 20 22 ar
22 18 21 ar
23 21 22 ar
24 7 23 1
25 20 23 1
26 6 24 1
27 24 27 1
28 5 25 1
29 26 32 1
30 27 33 1
31 28 34 1
32 23 29 1
33 24 30 1
34 25 31 1
35 33 36 1
36 29 34 1
37 34 35 1
38 16 35 1
39 30 35 1
40 31 36 1
41 32 36 1
@<TRIPOS>SUBSTRUCTURE
1	LIG1	1	GROUP	1 C	LIG
