# created with PyMOL 3.1.3.1
@<TRIPOS>MOLECULE
predicted
24 26 1                 
SMALL
USER_CHARGES
@<TRIPOS>ATOM
1	 O29	-8.163	0.481	-21.017	O.2	1	LIG1	0.000	
2	 N30	-5.945	-0.539	-17.658	N.2	1	LIG1	0.000	
3	 C31	-7.896	-0.514	-21.632	C.2	1	LIG1	0.000	
4	 C32	-6.559	-1.077	-18.707	C.2	1	LIG1	0.000	
5	 C33	-2.713	1.431	-20.517	C.2	1	LIG1	0.000	
6	 C34	-3.327	0.901	-21.593	C.2	1	LIG1	0.000	
7	 C35	-4.875	0.167	-17.803	C.2	1	LIG1	0.000	
8	 C36	-3.217	1.204	-19.257	C.2	1	LIG1	0.000	
9	 C37	-4.446	0.159	-21.468	C.2	1	LIG1	0.000	
10	 C38	-6.122	-0.894	-19.980	C.2	1	LIG1	0.000	
11	 C39	-4.344	0.436	-19.078	C.2	1	LIG1	0.000	
12	 C40	-4.971	-0.109	-20.212	C.2	1	LIG1	0.000	
13	 N41	-8.463	-0.684	-22.800	N.pl3	1	LIG1	0.000	
14	 C42	-6.880	-1.505	-21.103	C.3	1	LIG1	0.000	
15	 C43	-12.705	-2.756	-22.065	C.3	1	LIG1	0.000	
16	 C44	-13.976	-3.258	-24.133	C.3	1	LIG1	0.000	
17	 C45	-10.347	-1.133	-25.687	C.3	1	LIG1	0.000	
18	 C46	-9.392	0.336	-23.302	C.3	1	LIG1	0.000	
19	 C47	-8.239	-1.858	-23.614	C.3	1	LIG1	0.000	
20	 C48	-10.756	-0.306	-23.417	C.3	1	LIG1	0.000	
21	 C49	-9.578	-2.569	-23.712	C.3	1	LIG1	0.000	
22	 C50	-11.854	-2.339	-24.414	C.3	1	LIG1	0.000	
23	 C51	-12.927	-2.340	-23.461	C.3	1	LIG1	0.000	
24	 C52	-10.671	-1.579	-24.304	C.3	1	LIG1	0.000	
@<TRIPOS>BOND
1 2 7 ar
2 1 3 2
3 3 14 1
4 2 4 ar
5 5 6 ar
6 6 9 ar
7 7 11 ar
8 5 8 ar
9 9 12 ar
10 4 10 ar
11 10 12 ar
12 8 11 ar
13 11 12 ar
14 3 13 1
15 13 19 1
16 10 14 1
17 15 23 1
18 13 18 1
19 19 21 1
20 18 20 1
21 22 24 1
22 16 23 1
23 22 23 1
24 17 24 1
25 20 24 1
26 21 24 1
@<TRIPOS>SUBSTRUCTURE
1	LIG1	1	GROUP	1 C	LIG
