# created with PyMOL 3.1.3.1
@<TRIPOS>MOLECULE
predicted
35 39 1                 
SMALL
USER_CHARGES
@<TRIPOS>ATOM
1	CL29	-13.406	-3.284	-21.749	Cl	1	LIG1	0.000	
2	 O26	-10.922	2.297	-24.357	O.2	1	LIG1	0.000	
3	 O27	-6.112	2.336	-24.396	O.2	1	LIG1	0.000	
4	 O28	-8.732	0.593	-21.452	O.2	1	LIG1	0.000	
5	 N30	-6.265	-0.618	-17.971	N.2	1	LIG1	0.000	
6	 O31	-8.094	-4.485	-24.412	O.3	1	LIG1	0.000	
7	 C32	-10.382	1.174	-24.196	C.2	1	LIG1	0.000	
8	 C33	-7.238	2.574	-24.168	C.2	1	LIG1	0.000	
9	 C34	-8.348	-0.466	-21.927	C.2	1	LIG1	0.000	
10	 C35	-6.965	-1.027	-19.013	C.2	1	LIG1	0.000	
11	 C36	-13.189	-0.904	-22.922	C.2	1	LIG1	0.000	
12	 C37	-12.503	0.128	-23.483	C.2	1	LIG1	0.000	
13	 C38	-11.110	-2.101	-22.490	C.2	1	LIG1	0.000	
14	 C39	-2.918	1.180	-20.920	C.2	1	LIG1	0.000	
15	 C40	-3.612	0.746	-22.032	C.2	1	LIG1	0.000	
16	 C41	-12.488	-2.026	-22.400	C.2	1	LIG1	0.000	
17	 C42	-11.112	0.064	-23.577	C.2	1	LIG1	0.000	
18	 C43	-10.412	-1.089	-23.142	C.2	1	LIG1	0.000	
19	 C44	-5.105	0.011	-18.156	C.2	1	LIG1	0.000	
20	 C45	-3.407	0.938	-19.638	C.2	1	LIG1	0.000	
21	 C46	-4.790	0.084	-21.878	C.2	1	LIG1	0.000	
22	 C47	-6.542	-0.832	-20.344	C.2	1	LIG1	0.000	
23	 C48	-4.598	0.272	-19.449	C.2	1	LIG1	0.000	
24	 C49	-5.311	-0.157	-20.584	C.2	1	LIG1	0.000	
25	 N50	-7.600	3.201	-23.038	N.pl3	1	LIG1	0.000	
26	 N51	-7.327	-1.219	-21.407	N.pl3	1	LIG1	0.000	
27	 N52	-9.043	1.013	-24.502	N.pl3	1	LIG1	0.000	
28	 C53	-8.320	-5.137	-25.668	C.3	1	LIG1	0.000	
29	 C54	-6.612	3.682	-22.113	C.3	1	LIG1	0.000	
30	 C55	-8.322	2.111	-25.102	C.3	1	LIG1	0.000	
31	 C56	-8.379	-3.173	-24.422	C.3	1	LIG1	0.000	
32	 C57	-7.183	-2.445	-22.134	C.3	1	LIG1	0.000	
33	 C58	-8.406	-0.305	-24.442	C.3	1	LIG1	0.000	
34	 C59	-8.310	-2.493	-23.111	C.3	1	LIG1	0.000	
35	 C60	-8.911	-1.104	-23.182	C.3	1	LIG1	0.000	
@<TRIPOS>BOND
1 5 19 ar
2 6 28 1
3 2 7 2
4 3 8 2
5 8 30 1
6 4 9 2
7 9 26 1
8 5 10 ar
9 11 12 ar
10 12 17 ar
11 13 16 ar
12 14 15 ar
13 15 21 ar
14 1 16 1
15 11 16 ar
16 7 17 1
17 13 18 ar
18 17 18 ar
19 19 23 ar
20 14 20 ar
21 21 24 ar
22 10 22 ar
23 22 24 ar
24 20 23 ar
25 23 24 ar
26 8 25 1
27 22 26 1
28 26 32 1
29 7 27 1
30 27 33 1
31 25 29 1
32 27 30 1
33 6 31 1
34 32 34 1
35 33 35 1
36 31 34 1
37 9 35 1
38 18 35 1
39 34 35 1
@<TRIPOS>SUBSTRUCTURE
1	LIG1	1	GROUP	1 C	LIG
