# created with PyMOL 3.1.3.1
@<TRIPOS>MOLECULE
predicted
38 43 1                 
SMALL
USER_CHARGES
@<TRIPOS>ATOM
1	CL37	-13.820	-3.807	-21.963	Cl	1	LIG1	0.000	
2	 O35	-10.795	1.751	-24.084	O.2	1	LIG1	0.000	
3	 O36	-9.031	-0.021	-21.172	O.2	1	LIG1	0.000	
4	 N38	-6.560	-1.071	-17.666	N.2	1	LIG1	0.000	
5	 O39	-4.965	5.286	-23.673	O.3	1	LIG1	0.000	
6	 C40	-10.360	0.613	-23.938	C.2	1	LIG1	0.000	
7	 C41	-8.622	-1.079	-21.606	C.2	1	LIG1	0.000	
8	 C42	-7.245	-1.540	-18.686	C.2	1	LIG1	0.000	
9	 C43	-13.358	-1.394	-23.021	C.2	1	LIG1	0.000	
10	 C44	-12.578	-0.360	-23.443	C.2	1	LIG1	0.000	
11	 C45	-11.405	-2.649	-22.430	C.2	1	LIG1	0.000	
12	 C46	-3.334	0.809	-20.694	C.2	1	LIG1	0.000	
13	 C47	-4.030	0.328	-21.768	C.2	1	LIG1	0.000	
14	 C48	-12.788	-2.532	-22.501	C.2	1	LIG1	0.000	
15	 C49	-11.217	-0.476	-23.429	C.2	1	LIG1	0.000	
16	 C50	-10.608	-1.647	-22.952	C.2	1	LIG1	0.000	
17	 C51	-5.418	-0.407	-17.877	C.2	1	LIG1	0.000	
18	 C52	-3.783	0.566	-19.410	C.2	1	LIG1	0.000	
19	 C53	-5.174	-0.372	-21.579	C.2	1	LIG1	0.000	
20	 C54	-6.850	-1.334	-20.011	C.2	1	LIG1	0.000	
21	 C55	-4.941	-0.145	-19.182	C.2	1	LIG1	0.000	
22	 C56	-5.656	-0.614	-20.280	C.2	1	LIG1	0.000	
23	 N57	-7.613	-1.787	-21.068	N.pl3	1	LIG1	0.000	
24	 N58	-9.009	0.378	-24.146	N.pl3	1	LIG1	0.000	
25	 C59	-8.164	1.414	-24.587	C.3	1	LIG1	0.000	
26	 C60	-6.252	6.371	-21.934	C.3	1	LIG1	0.000	
27	 C61	-3.524	4.025	-25.193	C.3	1	LIG1	0.000	
28	 C62	-8.342	-3.904	-23.939	C.3	1	LIG1	0.000	
29	 C63	-7.454	-3.034	-21.728	C.3	1	LIG1	0.000	
30	 C64	-8.491	-0.951	-24.072	C.3	1	LIG1	0.000	
31	 C65	-7.565	2.067	-23.417	C.3	1	LIG1	0.000	
32	 C66	-7.065	4.276	-22.866	C.3	1	LIG1	0.000	
33	 C67	-5.703	3.074	-24.484	C.3	1	LIG1	0.000	
34	 C68	-5.969	5.146	-22.639	C.3	1	LIG1	0.000	
35	 C69	-4.636	3.996	-24.236	C.3	1	LIG1	0.000	
36	 C70	-8.558	-3.091	-22.753	C.3	1	LIG1	0.000	
37	 C71	-9.109	-1.715	-22.873	C.3	1	LIG1	0.000	
38	 N72	-6.803	3.177	-23.655	N.3	1	LIG1	0.000	
@<TRIPOS>BOND
1 4 17 ar
2 2 6 2
3 3 7 2
4 7 23 1
5 4 8 ar
6 9 10 ar
7 10 15 ar
8 11 14 ar
9 12 13 ar
10 13 19 ar
11 1 14 1
12 9 14 ar
13 6 15 1
14 11 16 ar
15 15 16 ar
16 17 21 ar
17 12 18 ar
18 19 22 ar
19 8 20 ar
20 20 22 ar
21 18 21 ar
22 21 22 ar
23 20 23 1
24 23 29 1
25 6 24 1
26 24 30 1
27 24 25 1
28 26 34 1
29 29 36 1
30 30 37 1
31 25 31 1
32 32 38 1
33 33 35 1
34 5 34 1
35 32 34 1
36 5 35 1
37 27 35 1
38 28 36 1
39 7 37 1
40 16 37 1
41 36 37 1
42 31 38 1
43 33 38 1
@<TRIPOS>SUBSTRUCTURE
1	LIG1	1	GROUP	1 C	LIG
