# created with PyMOL 3.1.3.1
@<TRIPOS>MOLECULE
predicted
38 42 1                 
SMALL
USER_CHARGES
@<TRIPOS>ATOM
1	 O27	-10.813	2.440	-24.142	O.2	1	LIG1	0.000	
2	 O28	-5.973	2.146	-24.297	O.2	1	LIG1	0.000	
3	 O29	-8.672	0.663	-21.416	O.2	1	LIG1	0.000	
4	 O30	-7.664	-5.514	-23.463	O.2	1	LIG1	0.000	
5	 O31	-5.978	-4.250	-24.675	O.2	1	LIG1	0.000	
6	 N33	-6.230	-0.577	-17.925	N.2	1	LIG1	0.000	
7	 C34	-10.280	1.309	-24.049	C.2	1	LIG1	0.000	
8	 C35	-7.043	2.597	-24.034	C.2	1	LIG1	0.000	
9	 C36	-8.284	-0.399	-21.894	C.2	1	LIG1	0.000	
10	 C37	-6.924	-0.991	-18.992	C.2	1	LIG1	0.000	
11	 C38	-13.104	-0.824	-22.922	C.2	1	LIG1	0.000	
12	 C39	-12.407	0.239	-23.403	C.2	1	LIG1	0.000	
13	 C40	-11.045	-2.077	-22.582	C.2	1	LIG1	0.000	
14	 C41	-2.869	1.250	-20.838	C.2	1	LIG1	0.000	
15	 C42	-3.551	0.806	-21.951	C.2	1	LIG1	0.000	
16	 C43	-12.438	-1.992	-22.499	C.2	1	LIG1	0.000	
17	 C44	-11.019	0.171	-23.502	C.2	1	LIG1	0.000	
18	 C45	-10.330	-1.018	-23.152	C.2	1	LIG1	0.000	
19	 C46	-5.077	0.060	-18.102	C.2	1	LIG1	0.000	
20	 C47	-3.370	1.005	-19.556	C.2	1	LIG1	0.000	
21	 C48	-4.725	0.138	-21.813	C.2	1	LIG1	0.000	
22	 C49	-6.492	-0.778	-20.311	C.2	1	LIG1	0.000	
23	 C50	-4.556	0.332	-19.384	C.2	1	LIG1	0.000	
24	 C51	-5.254	-0.096	-20.530	C.2	1	LIG1	0.000	
25	 N52	-7.279	3.326	-22.940	N.pl3	1	LIG1	0.000	
26	 N53	-7.280	-1.169	-21.399	N.pl3	1	LIG1	0.000	
27	 N54	-8.936	1.145	-24.380	N.pl3	1	LIG1	0.000	
28	 N55	-7.848	-5.364	-26.057	N.3	1	LIG1	0.000	
29	 C56	-6.218	3.693	-22.057	C.3	1	LIG1	0.000	
30	 C57	-9.126	-5.987	-26.101	C.3	1	LIG1	0.000	
31	 C58	-8.212	2.274	-24.932	C.3	1	LIG1	0.000	
32	 C59	-7.152	-2.391	-22.116	C.3	1	LIG1	0.000	
33	 C60	-8.336	-0.176	-24.395	C.3	1	LIG1	0.000	
34	 C61	-8.339	-3.131	-24.442	C.3	1	LIG1	0.000	
35	 C62	-8.211	-2.407	-23.156	C.3	1	LIG1	0.000	
36	 C63	-8.837	-1.031	-23.190	C.3	1	LIG1	0.000	
37	 S64	-7.408	-4.619	-24.614	S.O2	1	LIG1	0.000	
38	 F32	-13.153	-2.997	-22.035	 F	1	LIG1	0.000	
@<TRIPOS>BOND
1 6 19 ar
2 1 7 2
3 2 8 2
4 8 31 1
5 3 9 2
6 9 26 1
7 6 10 ar
8 11 12 ar
9 12 17 ar
10 13 16 ar
11 14 15 ar
12 15 21 ar
13 11 16 ar
14 16 38 1
15 7 17 1
16 13 18 ar
17 17 18 ar
18 19 23 ar
19 14 20 ar
20 21 24 ar
21 10 22 ar
22 22 24 ar
23 20 23 ar
24 23 24 ar
25 8 25 1
26 22 26 1
27 26 32 1
28 7 27 1
29 27 33 1
30 28 30 1
31 25 29 1
32 27 31 1
33 32 35 1
34 33 36 1
35 34 37 1
36 34 35 1
37 9 36 1
38 18 36 1
39 35 36 1
40 4 37 2
41 5 37 2
42 28 37 1
@<TRIPOS>SUBSTRUCTURE
1	LIG1	1	GROUP	1 C	LIG
