# created with PyMOL 3.1.3.1
@<TRIPOS>MOLECULE
predicted
25 28 1                 
SMALL
USER_CHARGES
@<TRIPOS>ATOM
1	 O23	8.177	0.814	20.604	O.2	1	LIG1	0.000	
2	 N24	6.056	0.372	16.852	N.2	1	LIG1	0.000	
3	 C25	7.812	-0.287	21.002	C.2	1	LIG1	0.000	
4	 C26	6.603	-0.333	17.848	C.2	1	LIG1	0.000	
5	 C27	13.176	-0.891	22.782	C.2	1	LIG1	0.000	
6	 C28	12.702	0.018	23.691	C.2	1	LIG1	0.000	
7	 C29	12.322	-1.559	21.992	C.2	1	LIG1	0.000	
8	 C30	11.316	0.217	23.794	C.2	1	LIG1	0.000	
9	 C31	10.946	-1.348	22.101	C.2	1	LIG1	0.000	
10	 C32	2.766	2.124	19.842	C.2	1	LIG1	0.000	
11	 C33	3.321	1.428	20.869	C.2	1	LIG1	0.000	
12	 C34	10.452	-0.469	23.033	C.2	1	LIG1	0.000	
13	 C35	5.001	1.102	17.061	C.2	1	LIG1	0.000	
14	 C36	3.301	2.041	18.584	C.2	1	LIG1	0.000	
15	 C37	4.425	0.646	20.689	C.2	1	LIG1	0.000	
16	 C38	6.134	-0.284	19.133	C.2	1	LIG1	0.000	
17	 C39	4.419	1.237	18.334	C.2	1	LIG1	0.000	
18	 C40	4.991	0.517	19.397	C.2	1	LIG1	0.000	
19	 N41	8.200	-0.845	22.157	N.pl3	1	LIG1	0.000	
20	 C42	6.830	-1.093	20.183	C.3	1	LIG1	0.000	
21	 C43	7.292	-3.102	24.812	C.3	1	LIG1	0.000	
22	 C44	7.777	-2.133	22.595	C.3	1	LIG1	0.000	
23	 C45	8.450	-0.902	24.432	C.3	1	LIG1	0.000	
24	 C46	8.228	-2.302	23.999	C.3	1	LIG1	0.000	
25	 C47	8.959	-0.190	23.175	C.3	1	LIG1	0.000	
@<TRIPOS>BOND
1 2 13 ar
2 1 3 2
3 3 20 1
4 2 4 ar
5 5 7 ar
6 5 6 ar
7 7 9 ar
8 6 8 ar
9 10 11 ar
10 11 15 ar
11 8 12 ar
12 9 12 ar
13 13 17 ar
14 10 14 ar
15 15 18 ar
16 4 16 ar
17 16 18 ar
18 14 17 ar
19 17 18 ar
20 3 19 1
21 19 22 1
22 16 20 1
23 21 24 1
24 23 25 1
25 22 24 1
26 23 24 1
27 12 25 1
28 19 25 1
@<TRIPOS>SUBSTRUCTURE
1	LIG1	1	GROUP	1 C	LIG
