# created with PyMOL 3.1.3.1
@<TRIPOS>MOLECULE
predicted
22 24 1                 
SMALL
USER_CHARGES
@<TRIPOS>ATOM
1	 O19	-8.372	0.494	-21.162	O.2	1	LIG1	0.000	
2	 N22	-6.030	-0.525	-17.758	N.2	1	LIG1	0.000	
3	 C23	-8.222	-0.595	-21.650	C.2	1	LIG1	0.000	
4	 C24	-6.703	-1.073	-18.751	C.2	1	LIG1	0.000	
5	 C25	-2.922	1.338	-20.831	C.2	1	LIG1	0.000	
6	 C26	-3.605	0.808	-21.870	C.2	1	LIG1	0.000	
7	 C27	-4.955	0.157	-17.981	C.2	1	LIG1	0.000	
8	 C28	-3.351	1.141	-19.545	C.2	1	LIG1	0.000	
9	 C29	-4.746	0.081	-21.656	C.2	1	LIG1	0.000	
10	 C30	-6.355	-0.909	-20.059	C.2	1	LIG1	0.000	
11	 C31	-4.481	0.406	-19.276	C.2	1	LIG1	0.000	
12	 C32	-5.189	-0.150	-20.373	C.2	1	LIG1	0.000	
13	 N33	-8.979	-0.959	-22.717	N.pl3	1	LIG1	0.000	
14	 C34	-7.182	-1.524	-21.144	C.3	1	LIG1	0.000	
15	 C35	-12.863	-2.241	-23.399	C.3	1	LIG1	0.000	
16	 C36	-9.783	0.017	-23.417	C.3	1	LIG1	0.000	
17	 C37	-9.048	-2.321	-23.206	C.3	1	LIG1	0.000	
18	 C38	-11.219	-0.400	-23.197	C.3	1	LIG1	0.000	
19	 C39	-10.477	-2.774	-22.948	C.3	1	LIG1	0.000	
20	 C40	-11.443	-1.815	-23.599	C.3	1	LIG1	0.000	
21	 F20	-13.147	-3.357	-23.852	 F	1	LIG1	0.000	
22	 F21	-13.493	-1.547	-22.588	 F	1	LIG1	0.000	
@<TRIPOS>BOND
1 1 3 2
2 2 7 ar
3 3 13 1
4 3 14 1
5 2 4 ar
6 5 6 ar
7 6 9 ar
8 7 11 ar
9 5 8 ar
10 9 12 ar
11 4 10 ar
12 10 12 ar
13 8 11 ar
14 11 12 ar
15 13 16 1
16 13 17 1
17 10 14 1
18 15 21 1
19 15 22 1
20 16 18 1
21 18 20 1
22 17 19 1
23 15 20 1
24 19 20 1
@<TRIPOS>SUBSTRUCTURE
1	LIG1	1	GROUP	1 C	LIG
