# created with PyMOL 3.1.3.1
@<TRIPOS>MOLECULE
predicted
39 43 1                 
SMALL
USER_CHARGES
@<TRIPOS>ATOM
1	 O29	10.441	3.414	23.464	O.2	1	LIG1	0.000	
2	 O30	5.623	2.857	23.551	O.2	1	LIG1	0.000	
3	 O31	8.614	1.425	20.749	O.2	1	LIG1	0.000	
4	 O32	8.141	-4.731	22.682	O.2	1	LIG1	0.000	
5	 O33	6.192	-3.925	23.818	O.2	1	LIG1	0.000	
6	 N35	6.129	0.031	17.347	N.2	1	LIG1	0.000	
7	 C36	10.005	2.252	23.417	C.2	1	LIG1	0.000	
8	 C37	6.666	3.333	23.244	C.2	1	LIG1	0.000	
9	 C38	8.253	0.357	21.264	C.2	1	LIG1	0.000	
10	 C39	6.865	-0.328	18.398	C.2	1	LIG1	0.000	
11	 C40	13.003	0.216	22.650	C.2	1	LIG1	0.000	
12	 C41	12.208	1.275	22.990	C.2	1	LIG1	0.000	
13	 C42	11.089	-1.157	22.219	C.2	1	LIG1	0.000	
14	 C43	2.667	1.602	20.293	C.2	1	LIG1	0.000	
15	 C44	3.402	1.210	21.401	C.2	1	LIG1	0.000	
16	 C45	12.461	-0.991	22.260	C.2	1	LIG1	0.000	
17	 C46	10.854	1.134	23.007	C.2	1	LIG1	0.000	
18	 C47	10.267	-0.099	22.652	C.2	1	LIG1	0.000	
19	 C48	4.932	0.579	17.537	C.2	1	LIG1	0.000	
20	 C49	3.181	1.390	19.009	C.2	1	LIG1	0.000	
21	 C50	4.636	0.629	21.255	C.2	1	LIG1	0.000	
22	 C51	6.436	-0.136	19.710	C.2	1	LIG1	0.000	
23	 C52	4.407	0.813	18.822	C.2	1	LIG1	0.000	
24	 C53	5.161	0.439	19.966	C.2	1	LIG1	0.000	
25	 N54	6.811	4.012	22.100	N.pl3	1	LIG1	0.000	
26	 N55	7.267	-0.456	20.788	N.pl3	1	LIG1	0.000	
27	 N56	8.671	2.018	23.678	N.pl3	1	LIG1	0.000	
28	 N57	8.142	-4.723	25.250	N.3	1	LIG1	0.000	
29	 C58	5.706	4.292	21.241	C.3	1	LIG1	0.000	
30	 C59	9.472	-5.253	25.322	C.3	1	LIG1	0.000	
31	 C60	7.547	-4.258	26.482	C.3	1	LIG1	0.000	
32	 C61	7.843	3.122	24.102	C.3	1	LIG1	0.000	
33	 C62	7.183	-1.663	21.549	C.3	1	LIG1	0.000	
34	 C63	8.155	0.650	23.730	C.3	1	LIG1	0.000	
35	 C64	8.315	-2.343	23.847	C.3	1	LIG1	0.000	
36	 C65	8.244	-1.622	22.560	C.3	1	LIG1	0.000	
37	 C66	8.775	-0.193	22.575	C.3	1	LIG1	0.000	
38	 S67	7.664	-3.989	23.864	S.O2	1	LIG1	0.000	
39	 F34	13.288	-1.976	21.922	 F	1	LIG1	0.000	
@<TRIPOS>BOND
1 6 19 ar
2 1 7 2
3 2 8 2
4 8 32 1
5 3 9 2
6 9 26 1
7 6 10 ar
8 11 12 ar
9 12 17 ar
10 13 16 ar
11 14 15 ar
12 15 21 ar
13 11 16 ar
14 16 39 1
15 7 17 1
16 13 18 ar
17 17 18 ar
18 19 23 ar
19 14 20 ar
20 21 24 ar
21 10 22 ar
22 22 24 ar
23 20 23 ar
24 23 24 ar
25 8 25 1
26 22 26 1
27 26 33 1
28 7 27 1
29 27 34 1
30 28 30 1
31 28 31 1
32 25 29 1
33 27 32 1
34 33 36 1
35 34 37 1
36 35 38 1
37 35 36 1
38 9 37 1
39 18 37 1
40 36 37 1
41 4 38 2
42 5 38 2
43 28 38 1
@<TRIPOS>SUBSTRUCTURE
1	LIG1	1	GROUP	1 C	LIG
