# created with PyMOL 3.1.3.1
@<TRIPOS>MOLECULE
predicted
37 41 1                 
SMALL
USER_CHARGES
@<TRIPOS>ATOM
1	CL31	13.594	-1.283	25.342	Cl	1	LIG1	0.000	
2	 O28	8.336	1.433	20.578	O.2	1	LIG1	0.000	
3	 O29	6.344	-5.816	20.566	O.2	1	LIG1	0.000	
4	 N32	6.083	0.330	17.151	N.2	1	LIG1	0.000	
5	 C33	7.837	0.492	21.196	C.2	1	LIG1	0.000	
6	 C34	6.459	-4.794	21.120	C.2	1	LIG1	0.000	
7	 C35	6.544	-0.079	18.335	C.2	1	LIG1	0.000	
8	 C36	12.431	-1.316	21.537	C.2	1	LIG1	0.000	
9	 C37	13.155	-1.540	22.684	C.2	1	LIG1	0.000	
10	 C38	7.406	-0.928	24.333	C.2	1	LIG1	0.000	
11	 C39	7.883	-2.339	22.433	C.2	1	LIG1	0.000	
12	 C40	11.253	-0.613	21.589	C.2	1	LIG1	0.000	
13	 C41	11.530	-0.307	23.880	C.2	1	LIG1	0.000	
14	 C42	6.851	-2.014	25.006	C.2	1	LIG1	0.000	
15	 C43	2.997	2.304	20.541	C.2	1	LIG1	0.000	
16	 C44	2.548	2.703	19.323	C.2	1	LIG1	0.000	
17	 C45	12.711	-1.028	23.850	C.2	1	LIG1	0.000	
18	 C46	7.882	-1.095	23.025	C.2	1	LIG1	0.000	
19	 C47	7.267	-3.423	23.038	C.2	1	LIG1	0.000	
20	 C48	10.815	-0.068	22.753	C.2	1	LIG1	0.000	
21	 C49	6.810	-3.288	24.393	C.2	1	LIG1	0.000	
22	 C50	5.038	1.065	17.088	C.2	1	LIG1	0.000	
23	 C51	4.122	1.516	20.669	C.2	1	LIG1	0.000	
24	 C52	3.211	2.312	18.192	C.2	1	LIG1	0.000	
25	 C53	5.969	0.291	19.556	C.2	1	LIG1	0.000	
26	 C54	4.337	1.502	18.245	C.2	1	LIG1	0.000	
27	 C55	4.807	1.089	19.508	C.2	1	LIG1	0.000	
28	 N56	8.381	0.051	22.292	N.pl3	1	LIG1	0.000	
29	 N57	7.087	-4.657	22.369	N.pl3	1	LIG1	0.000	
30	 C58	6.516	-0.164	20.820	C.3	1	LIG1	0.000	
31	 C59	9.545	0.744	22.811	C.3	1	LIG1	0.000	
32	 C60	6.589	-3.461	19.012	C.3	1	LIG1	0.000	
33	 C61	5.941	-3.612	20.403	C.3	1	LIG1	0.000	
34	 C62	6.354	-4.469	25.117	C.3	1	LIG1	0.000	
35	 C63	7.426	-5.808	23.153	C.3	1	LIG1	0.000	
36	 C64	6.738	-5.736	24.537	C.3	1	LIG1	0.000	
37	 F30	2.731	2.720	16.987	 F	1	LIG1	0.000	
@<TRIPOS>BOND
1 4 22 ar
2 2 5 2
3 5 30 1
4 3 6 2
5 6 29 1
6 4 7 ar
7 8 9 ar
8 9 17 ar
9 10 18 ar
10 11 19 ar
11 8 12 ar
12 10 14 ar
13 15 23 ar
14 15 16 ar
15 1 17 1
16 13 17 ar
17 11 18 ar
18 18 28 1
19 12 20 ar
20 13 20 ar
21 14 21 ar
22 19 21 ar
23 22 26 ar
24 23 27 ar
25 16 24 ar
26 24 37 1
27 7 25 ar
28 25 27 ar
29 24 26 ar
30 26 27 ar
31 5 28 1
32 28 31 1
33 19 29 1
34 29 35 1
35 25 30 1
36 20 31 1
37 32 33 1
38 6 33 1
39 21 34 1
40 35 36 1
41 34 36 1
@<TRIPOS>SUBSTRUCTURE
1	LIG1	1	GROUP	1 C	LIG
