# created with PyMOL 3.1.3.1
@<TRIPOS>MOLECULE
predicted
34 39 1                 
SMALL
USER_CHARGES
@<TRIPOS>ATOM
1	CL27	-13.234	-3.256	-22.073	Cl	1	LIG1	0.000	
2	 O24	-10.777	2.508	-24.320	O.2	1	LIG1	0.000	
3	 O25	-5.967	2.763	-24.333	O.2	1	LIG1	0.000	
4	 O26	-8.652	0.717	-21.501	O.2	1	LIG1	0.000	
5	 N28	-6.266	-0.464	-17.949	N.2	1	LIG1	0.000	
6	 C29	-10.217	1.386	-24.223	C.2	1	LIG1	0.000	
7	 C30	-7.100	2.937	-24.070	C.2	1	LIG1	0.000	
8	 C31	-8.229	-0.326	-21.965	C.2	1	LIG1	0.000	
9	 C32	-6.927	-0.894	-19.002	C.2	1	LIG1	0.000	
10	 C33	-13.008	-0.813	-23.213	C.2	1	LIG1	0.000	
11	 C34	-12.313	0.253	-23.685	C.2	1	LIG1	0.000	
12	 C35	-10.924	-1.976	-22.699	C.2	1	LIG1	0.000	
13	 C36	-2.889	1.432	-20.809	C.2	1	LIG1	0.000	
14	 C37	-3.534	0.966	-21.924	C.2	1	LIG1	0.000	
15	 C38	-12.317	-1.933	-22.698	C.2	1	LIG1	0.000	
16	 C39	-10.934	0.225	-23.715	C.2	1	LIG1	0.000	
17	 C40	-10.216	-0.925	-23.288	C.2	1	LIG1	0.000	
18	 C41	-5.105	0.190	-18.102	C.2	1	LIG1	0.000	
19	 C42	-3.400	1.183	-19.548	C.2	1	LIG1	0.000	
20	 C43	-4.703	0.283	-21.794	C.2	1	LIG1	0.000	
21	 C44	-6.486	-0.686	-20.316	C.2	1	LIG1	0.000	
22	 C45	-4.580	0.474	-19.385	C.2	1	LIG1	0.000	
23	 C46	-5.257	0.022	-20.524	C.2	1	LIG1	0.000	
24	 N47	-7.437	3.509	-22.902	N.pl3	1	LIG1	0.000	
25	 N48	-7.233	-1.083	-21.407	N.pl3	1	LIG1	0.000	
26	 N49	-8.869	1.279	-24.473	N.pl3	1	LIG1	0.000	
27	 C50	-6.428	3.993	-21.997	C.3	1	LIG1	0.000	
28	 C51	-8.170	2.442	-24.979	C.3	1	LIG1	0.000	
29	 C52	-7.071	-2.340	-22.076	C.3	1	LIG1	0.000	
30	 C53	-8.495	-3.308	-24.215	C.3	1	LIG1	0.000	
31	 C54	-7.202	-2.828	-24.392	C.3	1	LIG1	0.000	
32	 C55	-8.199	-0.027	-24.459	C.3	1	LIG1	0.000	
33	 C56	-8.057	-2.314	-23.253	C.3	1	LIG1	0.000	
34	 C57	-8.713	-0.927	-23.284	C.3	1	LIG1	0.000	
@<TRIPOS>BOND
1 5 18 ar
2 2 6 2
3 3 7 2
4 7 28 1
5 4 8 2
6 8 25 1
7 5 9 ar
8 10 11 ar
9 11 16 ar
10 12 15 ar
11 13 14 ar
12 14 20 ar
13 1 15 1
14 10 15 ar
15 6 16 1
16 12 17 ar
17 16 17 ar
18 18 22 ar
19 13 19 ar
20 20 23 ar
21 9 21 ar
22 21 23 ar
23 19 22 ar
24 22 23 ar
25 7 24 1
26 21 25 1
27 25 29 1
28 6 26 1
29 26 32 1
30 24 27 1
31 26 28 1
32 29 33 1
33 30 31 1
34 32 34 1
35 30 33 1
36 31 33 1
37 8 34 1
38 17 34 1
39 33 34 1
@<TRIPOS>SUBSTRUCTURE
1	LIG1	1	GROUP	1 C	LIG
