# created with PyMOL 3.1.3.1
@<TRIPOS>MOLECULE
predicted
34 38 1                 
SMALL
USER_CHARGES
@<TRIPOS>ATOM
1	CL27	-13.065	-3.187	-21.787	Cl	1	LIG1	0.000	
2	 O24	-10.500	2.431	-24.224	O.2	1	LIG1	0.000	
3	 O25	-5.810	2.588	-23.784	O.2	1	LIG1	0.000	
4	 O26	-8.451	0.719	-21.300	O.2	1	LIG1	0.000	
5	 N28	-6.052	-0.467	-17.735	N.2	1	LIG1	0.000	
6	 O29	-6.824	-3.604	-24.608	O.3	1	LIG1	0.000	
7	 C30	-9.951	1.321	-24.064	C.2	1	LIG1	0.000	
8	 C31	-6.949	2.875	-23.802	C.2	1	LIG1	0.000	
9	 C32	-8.034	-0.327	-21.745	C.2	1	LIG1	0.000	
10	 C33	-6.721	-0.899	-18.782	C.2	1	LIG1	0.000	
11	 C34	-12.788	-0.792	-22.960	C.2	1	LIG1	0.000	
12	 C35	-12.082	0.248	-23.471	C.2	1	LIG1	0.000	
13	 C36	-10.730	-1.978	-22.447	C.2	1	LIG1	0.000	
14	 C37	-2.691	1.370	-20.633	C.2	1	LIG1	0.000	
15	 C38	-3.355	0.914	-21.732	C.2	1	LIG1	0.000	
16	 C39	-12.119	-1.911	-22.431	C.2	1	LIG1	0.000	
17	 C40	-10.705	0.202	-23.502	C.2	1	LIG1	0.000	
18	 C41	-10.007	-0.956	-23.037	C.2	1	LIG1	0.000	
19	 C42	-4.896	0.187	-17.901	C.2	1	LIG1	0.000	
20	 C43	-3.189	1.138	-19.367	C.2	1	LIG1	0.000	
21	 C44	-4.518	0.246	-21.586	C.2	1	LIG1	0.000	
22	 C45	-6.290	-0.671	-20.095	C.2	1	LIG1	0.000	
23	 C46	-4.373	0.455	-19.189	C.2	1	LIG1	0.000	
24	 C47	-5.061	0.007	-20.320	C.2	1	LIG1	0.000	
25	 N48	-7.476	3.642	-22.837	N.pl3	1	LIG1	0.000	
26	 N49	-7.036	-1.075	-21.189	N.pl3	1	LIG1	0.000	
27	 N50	-8.599	1.174	-24.306	N.pl3	1	LIG1	0.000	
28	 C51	-6.642	4.255	-21.839	C.3	1	LIG1	0.000	
29	 C52	-7.874	2.284	-24.841	C.3	1	LIG1	0.000	
30	 C53	-7.931	-3.135	-24.137	C.3	1	LIG1	0.000	
31	 C54	-6.864	-2.320	-21.875	C.3	1	LIG1	0.000	
32	 C55	-7.953	-0.147	-24.231	C.3	1	LIG1	0.000	
33	 C56	-7.922	-2.336	-22.899	C.3	1	LIG1	0.000	
34	 C57	-8.521	-0.966	-23.027	C.3	1	LIG1	0.000	
@<TRIPOS>BOND
1 5 19 ar
2 2 7 2
3 3 8 2
4 8 29 1
5 4 9 2
6 9 26 1
7 5 10 ar
8 11 12 ar
9 12 17 ar
10 13 16 ar
11 14 15 ar
12 15 21 ar
13 1 16 1
14 11 16 ar
15 7 17 1
16 13 18 ar
17 17 18 ar
18 19 23 ar
19 14 20 ar
20 21 24 ar
21 10 22 ar
22 22 24 ar
23 20 23 ar
24 23 24 ar
25 8 25 1
26 22 26 1
27 26 31 1
28 7 27 1
29 27 32 1
30 25 28 1
31 27 29 1
32 6 30 1
33 31 33 1
34 32 34 1
35 30 33 1
36 9 34 1
37 18 34 1
38 33 34 1
@<TRIPOS>SUBSTRUCTURE
1	LIG1	1	GROUP	1 C	LIG
