# created with PyMOL 3.1.3.1
@<TRIPOS>MOLECULE
predicted
36 40 1                 
SMALL
USER_CHARGES
@<TRIPOS>ATOM
1	CL32	13.521	-1.153	25.795	Cl	1	LIG1	0.000	
2	 O30	8.207	1.076	21.086	O.2	1	LIG1	0.000	
3	 O31	3.717	-4.810	24.682	O.2	1	LIG1	0.000	
4	 N33	6.265	-0.039	17.379	N.2	1	LIG1	0.000	
5	 C34	8.008	-0.047	21.571	C.2	1	LIG1	0.000	
6	 C35	4.779	-4.472	24.313	C.2	1	LIG1	0.000	
7	 C36	6.861	-0.599	18.455	C.2	1	LIG1	0.000	
8	 C37	12.597	-0.271	22.008	C.2	1	LIG1	0.000	
9	 C38	9.062	-3.840	24.011	C.2	1	LIG1	0.000	
10	 C39	13.290	-0.646	23.111	C.2	1	LIG1	0.000	
11	 C40	9.256	-2.602	23.450	C.2	1	LIG1	0.000	
12	 C41	11.278	0.109	22.124	C.2	1	LIG1	0.000	
13	 C42	11.389	-0.217	24.451	C.2	1	LIG1	0.000	
14	 C43	7.877	-4.166	24.540	C.2	1	LIG1	0.000	
15	 C44	2.912	1.891	20.138	C.2	1	LIG1	0.000	
16	 C45	3.523	1.384	21.263	C.2	1	LIG1	0.000	
17	 C46	12.681	-0.633	24.322	C.2	1	LIG1	0.000	
18	 C47	8.260	-1.613	23.458	C.2	1	LIG1	0.000	
19	 C48	10.709	0.201	23.363	C.2	1	LIG1	0.000	
20	 C49	7.079	-1.913	24.078	C.2	1	LIG1	0.000	
21	 C50	6.851	-3.217	24.548	C.2	1	LIG1	0.000	
22	 C51	5.177	0.637	17.504	C.2	1	LIG1	0.000	
23	 C52	3.447	1.661	18.898	C.2	1	LIG1	0.000	
24	 C53	4.681	0.627	21.178	C.2	1	LIG1	0.000	
25	 C54	6.406	-0.428	19.738	C.2	1	LIG1	0.000	
26	 C55	4.605	0.890	18.765	C.2	1	LIG1	0.000	
27	 C56	5.234	0.349	19.915	C.2	1	LIG1	0.000	
28	 N57	8.478	-0.353	22.819	N.pl3	1	LIG1	0.000	
29	 C58	7.165	-1.063	20.886	C.3	1	LIG1	0.000	
30	 C59	9.281	0.613	23.498	C.3	1	LIG1	0.000	
31	 C60	4.527	-4.592	21.833	C.3	1	LIG1	0.000	
32	 C61	5.320	-5.060	23.014	C.3	1	LIG1	0.000	
33	 C62	5.988	-0.913	24.239	C.3	1	LIG1	0.000	
34	 C63	4.830	-1.257	24.983	C.3	1	LIG1	0.000	
35	 C64	4.924	-2.582	25.825	C.3	1	LIG1	0.000	
36	 N65	5.540	-3.543	24.951	N.pl3	1	LIG1	0.000	
@<TRIPOS>BOND
1 4 22 ar
2 2 5 2
3 5 29 1
4 3 6 2
5 6 36 1
6 4 7 ar
7 8 10 ar
8 9 14 ar
9 10 17 ar
10 9 11 ar
11 8 12 ar
12 14 21 ar
13 15 16 ar
14 16 24 ar
15 1 17 1
16 13 17 ar
17 11 18 ar
18 18 28 1
19 12 19 ar
20 13 19 ar
21 18 20 ar
22 20 21 ar
23 22 26 ar
24 15 23 ar
25 24 27 ar
26 7 25 ar
27 25 27 ar
28 23 26 ar
29 26 27 ar
30 5 28 1
31 28 30 1
32 25 29 1
33 19 30 1
34 31 32 1
35 6 32 1
36 20 33 1
37 33 34 1
38 34 35 1
39 21 36 1
40 35 36 1
@<TRIPOS>SUBSTRUCTURE
1	LIG1	1	GROUP	1 C	LIG
