# created with PyMOL 3.1.3.1
@<TRIPOS>MOLECULE
predicted
38 43 1                 
SMALL
USER_CHARGES
@<TRIPOS>ATOM
1	CL34	13.582	-2.024	22.050	Cl	1	LIG1	0.000	
2	 O30	10.314	3.524	23.727	O.2	1	LIG1	0.000	
3	 O31	8.574	1.433	20.931	O.2	1	LIG1	0.000	
4	 O32	5.543	8.698	21.838	O.2	1	LIG1	0.000	
5	 O33	4.402	8.239	23.957	O.2	1	LIG1	0.000	
6	 N35	6.099	0.007	17.582	N.2	1	LIG1	0.000	
7	 C36	9.905	2.362	23.645	C.2	1	LIG1	0.000	
8	 C37	8.212	0.401	21.479	C.2	1	LIG1	0.000	
9	 C38	6.829	-0.336	18.631	C.2	1	LIG1	0.000	
10	 C39	13.001	0.428	22.862	C.2	1	LIG1	0.000	
11	 C40	12.170	1.459	23.213	C.2	1	LIG1	0.000	
12	 C41	11.084	-0.976	22.400	C.2	1	LIG1	0.000	
13	 C42	2.760	1.942	20.492	C.2	1	LIG1	0.000	
14	 C43	3.499	1.586	21.608	C.2	1	LIG1	0.000	
15	 C44	12.475	-0.772	22.450	C.2	1	LIG1	0.000	
16	 C45	10.803	1.268	23.223	C.2	1	LIG1	0.000	
17	 C46	10.245	0.027	22.857	C.2	1	LIG1	0.000	
18	 C47	4.913	0.623	17.761	C.2	1	LIG1	0.000	
19	 C48	3.226	1.618	19.223	C.2	1	LIG1	0.000	
20	 C49	4.672	0.920	21.455	C.2	1	LIG1	0.000	
21	 C50	6.401	-0.085	19.947	C.2	1	LIG1	0.000	
22	 C51	4.415	0.955	19.042	C.2	1	LIG1	0.000	
23	 C52	5.163	0.604	20.180	C.2	1	LIG1	0.000	
24	 N53	6.400	4.957	23.142	N.3	1	LIG1	0.000	
25	 N54	7.213	-0.395	21.026	N.pl3	1	LIG1	0.000	
26	 N55	8.550	2.101	23.850	N.pl3	1	LIG1	0.000	
27	 C56	7.128	3.751	22.904	C.3	1	LIG1	0.000	
28	 C57	7.656	3.132	24.191	C.3	1	LIG1	0.000	
29	 C58	7.312	6.060	23.444	C.3	1	LIG1	0.000	
30	 C59	5.413	5.193	22.082	C.3	1	LIG1	0.000	
31	 C60	8.111	-2.235	24.056	C.3	1	LIG1	0.000	
32	 C61	7.105	-1.584	21.814	C.3	1	LIG1	0.000	
33	 C62	8.089	0.734	23.922	C.3	1	LIG1	0.000	
34	 C63	6.765	7.279	23.737	C.3	1	LIG1	0.000	
35	 C64	4.553	6.261	22.307	C.3	1	LIG1	0.000	
36	 C65	8.260	-1.523	22.788	C.3	1	LIG1	0.000	
37	 C66	8.743	-0.106	22.799	C.3	1	LIG1	0.000	
38	 S67	5.289	7.758	22.920	S.O2	1	LIG1	0.000	
@<TRIPOS>BOND
1 6 18 ar
2 2 7 2
3 7 16 1
4 3 8 2
5 8 37 1
6 6 9 ar
7 10 15 ar
8 10 11 ar
9 12 17 ar
10 13 14 ar
11 14 20 ar
12 1 15 1
13 12 15 ar
14 11 16 ar
15 16 17 ar
16 18 22 ar
17 13 19 ar
18 20 23 ar
19 9 21 ar
20 21 23 ar
21 19 22 ar
22 22 23 ar
23 24 29 1
24 24 30 1
25 8 25 1
26 21 25 1
27 7 26 1
28 26 28 1
29 24 27 1
30 27 28 1
31 29 34 1
32 31 36 1
33 25 32 1
34 26 33 1
35 34 38 1
36 30 35 1
37 32 36 1
38 36 37 1
39 17 37 1
40 33 37 1
41 4 38 2
42 5 38 2
43 35 38 1
@<TRIPOS>SUBSTRUCTURE
1	LIG1	1	GROUP	1 C	LIG
