# created with PyMOL 3.1.3.1
@<TRIPOS>MOLECULE
predicted
42 48 1                 
SMALL
USER_CHARGES
@<TRIPOS>ATOM
1	CL28	13.387	-1.969	22.031	Cl	1	LIG1	0.000	
2	 O26	10.008	3.389	24.071	O.2	1	LIG1	0.000	
3	 O27	8.436	1.504	21.004	O.2	1	LIG1	0.000	
4	 N29	6.790	5.746	22.389	N.2	1	LIG1	0.000	
5	 N30	7.529	5.112	23.354	N.2	1	LIG1	0.000	
6	 N31	4.006	-5.490	23.210	N.2	1	LIG1	0.000	
7	 N32	5.403	-3.768	23.944	N.2	1	LIG1	0.000	
8	 N33	6.114	0.093	17.418	N.2	1	LIG1	0.000	
9	 O34	5.874	3.802	22.818	O.2	1	LIG1	0.000	
10	 C35	9.609	2.246	23.874	C.2	1	LIG1	0.000	
11	 C36	8.083	0.427	21.445	C.2	1	LIG1	0.000	
12	 C37	4.219	-4.308	23.841	C.2	1	LIG1	0.000	
13	 C38	5.794	4.946	22.078	C.2	1	LIG1	0.000	
14	 C39	6.917	3.934	23.600	C.2	1	LIG1	0.000	
15	 C40	5.071	-6.175	22.731	C.2	1	LIG1	0.000	
16	 C41	6.812	-0.298	18.487	C.2	1	LIG1	0.000	
17	 C42	6.506	-4.390	23.441	C.2	1	LIG1	0.000	
18	 C43	6.358	-5.642	22.851	C.2	1	LIG1	0.000	
19	 C44	12.743	0.411	23.060	C.2	1	LIG1	0.000	
20	 C45	11.887	1.406	23.459	C.2	1	LIG1	0.000	
21	 C46	10.888	-0.980	22.417	C.2	1	LIG1	0.000	
22	 C47	2.720	1.941	20.264	C.2	1	LIG1	0.000	
23	 C48	3.418	1.556	21.394	C.2	1	LIG1	0.000	
24	 C49	12.253	-0.773	22.536	C.2	1	LIG1	0.000	
25	 C50	10.529	1.214	23.394	C.2	1	LIG1	0.000	
26	 C51	10.019	-0.004	22.896	C.2	1	LIG1	0.000	
27	 C52	4.945	0.700	17.571	C.2	1	LIG1	0.000	
28	 C53	3.224	1.657	19.001	C.2	1	LIG1	0.000	
29	 C54	4.602	0.908	21.269	C.2	1	LIG1	0.000	
30	 C55	6.374	-0.017	19.787	C.2	1	LIG1	0.000	
31	 C56	4.419	1.005	18.844	C.2	1	LIG1	0.000	
32	 C57	5.129	0.630	19.996	C.2	1	LIG1	0.000	
33	 N58	7.756	-3.840	23.532	N.pl3	1	LIG1	0.000	
34	 N59	7.139	-0.372	20.884	N.pl3	1	LIG1	0.000	
35	 N60	8.267	1.945	24.036	N.pl3	1	LIG1	0.000	
36	 C61	4.813	5.290	21.056	C.3	1	LIG1	0.000	
37	 C62	7.394	2.922	24.609	C.3	1	LIG1	0.000	
38	 C63	8.009	-2.402	23.827	C.3	1	LIG1	0.000	
39	 C64	7.045	-1.606	21.560	C.3	1	LIG1	0.000	
40	 C65	7.784	0.586	23.906	C.3	1	LIG1	0.000	
41	 C66	8.090	-1.592	22.615	C.3	1	LIG1	0.000	
42	 C67	8.529	-0.172	22.760	C.3	1	LIG1	0.000	
@<TRIPOS>BOND
1 4 5 ar
2 5 14 ar
3 6 12 ar
4 8 27 ar
5 2 10 2
6 3 11 2
7 11 34 1
8 7 12 ar
9 4 13 ar
10 9 13 ar
11 9 14 ar
12 14 37 1
13 6 15 ar
14 8 16 ar
15 7 17 ar
16 17 18 ar
17 15 18 ar
18 19 20 ar
19 20 25 ar
20 21 24 ar
21 22 23 ar
22 23 29 ar
23 1 24 1
24 19 24 ar
25 10 25 1
26 21 26 ar
27 25 26 ar
28 27 31 ar
29 22 28 ar
30 29 32 ar
31 16 30 ar
32 30 32 ar
33 28 31 ar
34 31 32 ar
35 17 33 1
36 30 34 1
37 34 39 1
38 10 35 1
39 35 40 1
40 13 36 1
41 35 37 1
42 33 38 1
43 39 41 1
44 40 42 1
45 38 41 1
46 11 42 1
47 26 42 1
48 41 42 1
@<TRIPOS>SUBSTRUCTURE
1	LIG1	1	GROUP	1 C	LIG
