# created with PyMOL 3.1.3.1
@<TRIPOS>MOLECULE
predicted
35 40 1                 
SMALL
USER_CHARGES
@<TRIPOS>ATOM
1	 O23	10.618	3.226	24.033	O.2	1	LIG1	0.000	
2	 O24	8.815	1.385	21.061	O.2	1	LIG1	0.000	
3	 N26	5.910	3.584	23.733	N.2	1	LIG1	0.000	
4	 N27	7.691	4.377	22.757	N.2	1	LIG1	0.000	
5	 N28	6.320	0.103	17.581	N.2	1	LIG1	0.000	
6	 O29	5.539	4.417	22.673	O.2	1	LIG1	0.000	
7	 C30	10.181	2.083	23.878	C.2	1	LIG1	0.000	
8	 C31	8.424	0.329	21.529	C.2	1	LIG1	0.000	
9	 C32	7.215	3.587	23.761	C.2	1	LIG1	0.000	
10	 C33	6.649	4.886	22.126	C.2	1	LIG1	0.000	
11	 C34	7.037	-0.280	18.621	C.2	1	LIG1	0.000	
12	 C35	13.219	0.157	22.891	C.2	1	LIG1	0.000	
13	 C36	12.422	1.169	23.338	C.2	1	LIG1	0.000	
14	 C37	11.281	-1.170	22.340	C.2	1	LIG1	0.000	
15	 C38	2.957	1.880	20.511	C.2	1	LIG1	0.000	
16	 C39	3.686	1.479	21.621	C.2	1	LIG1	0.000	
17	 C40	12.672	-1.003	22.390	C.2	1	LIG1	0.000	
18	 C41	11.036	1.025	23.331	C.2	1	LIG1	0.000	
19	 C42	10.457	-0.178	22.870	C.2	1	LIG1	0.000	
20	 C43	5.147	0.714	17.758	C.2	1	LIG1	0.000	
21	 C44	3.439	1.622	19.235	C.2	1	LIG1	0.000	
22	 C45	4.880	0.850	21.456	C.2	1	LIG1	0.000	
23	 C46	6.628	-0.035	19.937	C.2	1	LIG1	0.000	
24	 C47	4.644	0.987	19.047	C.2	1	LIG1	0.000	
25	 C48	5.385	0.600	20.170	C.2	1	LIG1	0.000	
26	 N49	7.419	-0.412	21.013	N.pl3	1	LIG1	0.000	
27	 N50	8.840	1.811	24.134	N.pl3	1	LIG1	0.000	
28	 C51	6.589	5.831	20.990	C.3	1	LIG1	0.000	
29	 C52	8.037	2.806	24.767	C.3	1	LIG1	0.000	
30	 C53	8.315	-2.501	23.931	C.3	1	LIG1	0.000	
31	 C54	7.279	-1.659	21.713	C.3	1	LIG1	0.000	
32	 C55	8.305	0.450	24.022	C.3	1	LIG1	0.000	
33	 C56	8.427	-1.691	22.691	C.3	1	LIG1	0.000	
34	 C57	8.950	-0.289	22.815	C.3	1	LIG1	0.000	
35	 F25	13.481	-1.952	21.977	 F	1	LIG1	0.000	
@<TRIPOS>BOND
1 3 6 ar
2 4 9 ar
3 5 20 ar
4 1 7 2
5 2 8 2
6 8 26 1
7 3 9 ar
8 9 29 1
9 4 10 ar
10 6 10 ar
11 5 11 ar
12 12 13 ar
13 13 18 ar
14 14 17 ar
15 15 16 ar
16 16 22 ar
17 12 17 ar
18 17 35 1
19 7 18 1
20 14 19 ar
21 18 19 ar
22 20 24 ar
23 15 21 ar
24 22 25 ar
25 11 23 ar
26 23 25 ar
27 21 24 ar
28 24 25 ar
29 23 26 1
30 26 31 1
31 7 27 1
32 27 32 1
33 10 28 1
34 27 29 1
35 31 33 1
36 32 34 1
37 30 33 1
38 8 34 1
39 19 34 1
40 33 34 1
@<TRIPOS>SUBSTRUCTURE
1	LIG1	1	GROUP	1 C	LIG
