# created with PyMOL 3.1.3.1
@<TRIPOS>MOLECULE
predicted
34 39 1                 
SMALL
USER_CHARGES
@<TRIPOS>ATOM
1	 O22	10.466	3.122	24.009	O.2	1	LIG1	0.000	
2	 O23	8.675	1.223	21.061	O.2	1	LIG1	0.000	
3	 N25	7.703	4.323	22.708	N.2	1	LIG1	0.000	
4	 N26	6.205	0.018	17.608	N.2	1	LIG1	0.000	
5	 O27	5.927	3.185	23.214	O.2	1	LIG1	0.000	
6	 C28	10.041	1.973	23.864	C.2	1	LIG1	0.000	
7	 C29	8.291	0.185	21.557	C.2	1	LIG1	0.000	
8	 C30	7.157	3.422	23.515	C.2	1	LIG1	0.000	
9	 C31	6.709	4.706	21.815	C.2	1	LIG1	0.000	
10	 C32	6.912	-0.377	18.654	C.2	1	LIG1	0.000	
11	 C33	5.620	3.946	22.109	C.2	1	LIG1	0.000	
12	 C34	13.096	0.051	22.904	C.2	1	LIG1	0.000	
13	 C35	12.289	1.067	23.336	C.2	1	LIG1	0.000	
14	 C36	11.163	-1.307	22.381	C.2	1	LIG1	0.000	
15	 C37	2.730	1.638	20.522	C.2	1	LIG1	0.000	
16	 C38	3.428	1.207	21.634	C.2	1	LIG1	0.000	
17	 C39	12.558	-1.128	22.433	C.2	1	LIG1	0.000	
18	 C40	10.909	0.901	23.344	C.2	1	LIG1	0.000	
19	 C41	10.324	-0.306	22.902	C.2	1	LIG1	0.000	
20	 C42	5.008	0.601	17.779	C.2	1	LIG1	0.000	
21	 C43	3.247	1.437	19.250	C.2	1	LIG1	0.000	
22	 C44	4.648	0.602	21.479	C.2	1	LIG1	0.000	
23	 C45	6.472	-0.188	19.966	C.2	1	LIG1	0.000	
24	 C46	4.478	0.835	19.067	C.2	1	LIG1	0.000	
25	 C47	5.204	0.416	20.197	C.2	1	LIG1	0.000	
26	 N48	7.264	-0.559	21.048	N.pl3	1	LIG1	0.000	
27	 N49	8.702	1.700	24.112	N.pl3	1	LIG1	0.000	
28	 C50	7.859	2.716	24.662	C.3	1	LIG1	0.000	
29	 C51	8.161	-2.624	23.966	C.3	1	LIG1	0.000	
30	 C52	7.133	-1.802	21.768	C.3	1	LIG1	0.000	
31	 C53	8.179	0.335	24.040	C.3	1	LIG1	0.000	
32	 C54	8.298	-1.834	22.737	C.3	1	LIG1	0.000	
33	 C55	8.821	-0.425	22.842	C.3	1	LIG1	0.000	
34	 F24	13.385	-2.093	22.017	 F	1	LIG1	0.000	
@<TRIPOS>BOND
1 3 9 ar
2 4 20 ar
3 1 6 2
4 6 18 1
5 2 7 2
6 7 33 1
7 3 8 ar
8 5 8 ar
9 9 11 ar
10 4 10 ar
11 5 11 ar
12 12 17 ar
13 12 13 ar
14 14 19 ar
15 15 16 ar
16 16 22 ar
17 14 17 ar
18 17 34 1
19 13 18 ar
20 18 19 ar
21 20 24 ar
22 15 21 ar
23 22 25 ar
24 10 23 ar
25 23 25 ar
26 21 24 ar
27 24 25 ar
28 7 26 1
29 23 26 1
30 6 27 1
31 27 28 1
32 8 28 1
33 29 32 1
34 26 30 1
35 27 31 1
36 30 32 1
37 32 33 1
38 19 33 1
39 31 33 1
@<TRIPOS>SUBSTRUCTURE
1	LIG1	1	GROUP	1 C	LIG
