# created with PyMOL 3.1.3.1
@<TRIPOS>MOLECULE
predicted
24 27 1                 
SMALL
USER_CHARGES
@<TRIPOS>ATOM
1	 O21	-8.206	0.479	-21.297	O.2	1	LIG1	0.000	
2	 N22	-6.029	-0.426	-17.759	N.2	1	LIG1	0.000	
3	 S23	-13.083	-1.548	-23.209	S.2	1	LIG1	0.000	
4	 C24	-8.099	-0.646	-21.731	C.2	1	LIG1	0.000	
5	 C25	-6.685	-0.998	-18.769	C.2	1	LIG1	0.000	
6	 C26	-13.191	0.001	-23.719	C.2	1	LIG1	0.000	
7	 C27	-11.406	-1.591	-23.244	C.2	1	LIG1	0.000	
8	 C28	-11.954	0.563	-23.865	C.2	1	LIG1	0.000	
9	 C29	-2.804	1.311	-20.775	C.2	1	LIG1	0.000	
10	 C30	-3.450	0.742	-21.823	C.2	1	LIG1	0.000	
11	 C31	-10.942	-0.364	-23.580	C.2	1	LIG1	0.000	
12	 C32	-4.935	0.251	-17.954	C.2	1	LIG1	0.000	
13	 C33	-3.278	1.167	-19.487	C.2	1	LIG1	0.000	
14	 C34	-4.601	0.034	-21.646	C.2	1	LIG1	0.000	
15	 C35	-6.272	-0.901	-20.076	C.2	1	LIG1	0.000	
16	 C36	-4.427	0.435	-19.254	C.2	1	LIG1	0.000	
17	 C37	-5.103	-0.144	-20.347	C.2	1	LIG1	0.000	
18	 N38	-8.820	-1.078	-22.801	N.pl3	1	LIG1	0.000	
19	 C39	-7.066	-1.573	-21.138	C.3	1	LIG1	0.000	
20	 C40	-7.515	0.085	-25.142	C.3	1	LIG1	0.000	
21	 C41	-10.514	-2.728	-22.801	C.3	1	LIG1	0.000	
22	 C42	-9.044	-2.450	-23.069	C.3	1	LIG1	0.000	
23	 C43	-8.960	-0.265	-25.074	C.3	1	LIG1	0.000	
24	 C44	-9.494	-0.121	-23.615	C.3	1	LIG1	0.000	
@<TRIPOS>BOND
1 2 12 ar
2 3 7 ar
3 1 4 2
4 4 19 1
5 2 5 ar
6 3 6 ar
7 7 21 1
8 6 8 ar
9 9 10 ar
10 10 14 ar
11 7 11 ar
12 8 11 ar
13 12 16 ar
14 9 13 ar
15 14 17 ar
16 5 15 ar
17 15 17 ar
18 13 16 ar
19 16 17 ar
20 4 18 1
21 15 19 1
22 20 23 1
23 21 22 1
24 18 22 1
25 23 24 1
26 11 24 1
27 18 24 1
@<TRIPOS>SUBSTRUCTURE
1	LIG1	1	GROUP	1 C	LIG
