# created with PyMOL 3.1.3.1
@<TRIPOS>MOLECULE
predicted
34 39 1                 
SMALL
USER_CHARGES
@<TRIPOS>ATOM
1	CL25	13.556	-1.831	22.068	Cl	1	LIG1	0.000	
2	 O23	10.286	3.681	23.931	O.2	1	LIG1	0.000	
3	 O24	8.653	1.599	21.064	O.2	1	LIG1	0.000	
4	 N26	6.257	0.204	17.659	N.2	1	LIG1	0.000	
5	 N27	5.632	4.226	23.589	N.2	1	LIG1	0.000	
6	 C28	9.900	2.505	23.851	C.2	1	LIG1	0.000	
7	 C29	8.247	0.590	21.631	C.2	1	LIG1	0.000	
8	 C30	6.944	-0.143	18.730	C.2	1	LIG1	0.000	
9	 C31	6.898	3.908	23.534	C.2	1	LIG1	0.000	
10	 C32	13.015	0.621	22.931	C.2	1	LIG1	0.000	
11	 C33	12.183	1.643	23.321	C.2	1	LIG1	0.000	
12	 C34	11.095	-0.808	22.513	C.2	1	LIG1	0.000	
13	 C35	2.766	2.005	20.461	C.2	1	LIG1	0.000	
14	 C36	3.466	1.656	21.601	C.2	1	LIG1	0.000	
15	 C37	7.422	4.323	22.350	C.2	1	LIG1	0.000	
16	 C38	12.479	-0.592	22.529	C.2	1	LIG1	0.000	
17	 C39	10.804	1.437	23.362	C.2	1	LIG1	0.000	
18	 C40	10.266	0.195	22.995	C.2	1	LIG1	0.000	
19	 C41	5.063	0.811	17.785	C.2	1	LIG1	0.000	
20	 C42	3.288	1.735	19.202	C.2	1	LIG1	0.000	
21	 C43	4.676	1.049	21.486	C.2	1	LIG1	0.000	
22	 C44	6.497	0.153	20.021	C.2	1	LIG1	0.000	
23	 C45	6.355	4.889	21.637	C.2	1	LIG1	0.000	
24	 C46	4.517	1.114	19.059	C.2	1	LIG1	0.000	
25	 C47	5.226	0.772	20.212	C.2	1	LIG1	0.000	
26	 N48	7.264	-0.185	21.128	N.pl3	1	LIG1	0.000	
27	 N49	8.561	2.199	24.154	N.pl3	1	LIG1	0.000	
28	 N50	5.317	4.818	22.409	N.2	1	LIG1	0.000	
29	 C51	7.676	3.222	24.662	C.3	1	LIG1	0.000	
30	 C52	4.034	5.314	22.099	C.3	1	LIG1	0.000	
31	 C53	7.132	-1.414	21.881	C.3	1	LIG1	0.000	
32	 C54	8.090	0.818	24.138	C.3	1	LIG1	0.000	
33	 C55	8.248	-1.318	22.958	C.3	1	LIG1	0.000	
34	 C56	8.763	0.067	22.948	C.3	1	LIG1	0.000	
@<TRIPOS>BOND
1 4 19 ar
2 2 6 2
3 3 7 2
4 4 8 ar
5 5 9 ar
6 9 29 1
7 10 11 ar
8 11 17 ar
9 12 16 ar
10 13 14 ar
11 14 21 ar
12 9 15 ar
13 1 16 1
14 10 16 ar
15 6 17 1
16 12 18 ar
17 17 18 ar
18 19 24 ar
19 13 20 ar
20 21 25 ar
21 8 22 ar
22 22 25 ar
23 15 23 ar
24 20 24 ar
25 24 25 ar
26 7 26 1
27 22 26 1
28 6 27 1
29 27 32 1
30 5 28 ar
31 23 28 ar
32 27 29 1
33 28 30 1
34 26 31 1
35 32 34 1
36 31 33 1
37 7 34 1
38 18 34 1
39 33 34 1
@<TRIPOS>SUBSTRUCTURE
1	LIG1	1	GROUP	1 C	LIG
