# created with PyMOL 3.1.3.1
@<TRIPOS>MOLECULE
predicted
25 28 1                 
SMALL
USER_CHARGES
@<TRIPOS>ATOM
1	 O23	8.332	-0.130	21.543	O.2	1	LIG1	0.000	
2	 N24	6.229	-0.570	17.743	N.2	1	LIG1	0.000	
3	 C25	7.963	-1.218	21.957	C.2	1	LIG1	0.000	
4	 C26	6.754	-1.274	18.760	C.2	1	LIG1	0.000	
5	 C27	13.425	-1.761	23.290	C.2	1	LIG1	0.000	
6	 C28	12.488	-2.584	22.758	C.2	1	LIG1	0.000	
7	 C29	13.040	-0.680	24.059	C.2	1	LIG1	0.000	
8	 C30	11.134	-2.338	22.974	C.2	1	LIG1	0.000	
9	 C31	11.671	-0.446	24.290	C.2	1	LIG1	0.000	
10	 C32	3.059	1.401	20.734	C.2	1	LIG1	0.000	
11	 C33	3.584	0.684	21.782	C.2	1	LIG1	0.000	
12	 C34	10.733	-1.289	23.800	C.2	1	LIG1	0.000	
13	 C35	5.210	0.213	17.930	C.2	1	LIG1	0.000	
14	 C36	3.583	1.267	19.454	C.2	1	LIG1	0.000	
15	 C37	4.650	-0.155	21.600	C.2	1	LIG1	0.000	
16	 C38	6.288	-1.186	20.049	C.2	1	LIG1	0.000	
17	 C39	4.651	0.400	19.216	C.2	1	LIG1	0.000	
18	 C40	5.184	-0.331	20.311	C.2	1	LIG1	0.000	
19	 N41	8.416	-1.755	23.154	N.pl3	1	LIG1	0.000	
20	 C42	6.962	-2.011	21.137	C.3	1	LIG1	0.000	
21	 C43	8.091	-3.093	23.634	C.3	1	LIG1	0.000	
22	 C44	7.492	-3.140	25.024	C.3	1	LIG1	0.000	
23	 C45	8.451	-2.395	26.002	C.3	1	LIG1	0.000	
24	 C46	8.760	-0.974	25.475	C.3	1	LIG1	0.000	
25	 C47	9.266	-0.937	24.019	C.3	1	LIG1	0.000	
@<TRIPOS>BOND
1 1 3 2
2 2 13 ar
3 3 19 1
4 3 20 1
5 2 4 ar
6 5 7 ar
7 5 6 ar
8 7 9 ar
9 6 8 ar
10 10 11 ar
11 11 15 ar
12 8 12 ar
13 9 12 ar
14 13 17 ar
15 10 14 ar
16 15 18 ar
17 4 16 ar
18 16 18 ar
19 14 17 ar
20 17 18 ar
21 19 21 1
22 19 25 1
23 16 20 1
24 21 22 1
25 22 23 1
26 23 24 1
27 24 25 1
28 12 25 1
@<TRIPOS>SUBSTRUCTURE
1	LIG1	1	GROUP	1 C	LIG
