# created with PyMOL 3.1.3.1
@<TRIPOS>MOLECULE
predicted
38 42 1                 
SMALL
USER_CHARGES
@<TRIPOS>ATOM
1	CL32	-13.338	-3.105	-21.823	Cl	1	LIG1	0.000	
2	 O27	-10.641	2.501	-24.190	O.2	1	LIG1	0.000	
3	 O28	-5.787	2.160	-24.321	O.2	1	LIG1	0.000	
4	 O29	-8.573	0.682	-21.391	O.2	1	LIG1	0.000	
5	 O30	-7.703	-5.455	-23.154	O.2	1	LIG1	0.000	
6	 O31	-6.014	-4.443	-24.558	O.2	1	LIG1	0.000	
7	 N33	-6.178	-0.595	-17.888	N.2	1	LIG1	0.000	
8	 C34	-10.133	1.367	-24.080	C.2	1	LIG1	0.000	
9	 C35	-6.858	2.583	-24.035	C.2	1	LIG1	0.000	
10	 C36	-8.194	-0.373	-21.872	C.2	1	LIG1	0.000	
11	 C37	-6.866	-1.005	-18.950	C.2	1	LIG1	0.000	
12	 C38	-13.005	-0.681	-22.917	C.2	1	LIG1	0.000	
13	 C39	-12.283	0.348	-23.425	C.2	1	LIG1	0.000	
14	 C40	-10.974	-1.954	-22.518	C.2	1	LIG1	0.000	
15	 C41	-2.751	1.192	-20.792	C.2	1	LIG1	0.000	
16	 C42	-3.431	0.755	-21.913	C.2	1	LIG1	0.000	
17	 C43	-12.358	-1.826	-22.449	C.2	1	LIG1	0.000	
18	 C44	-10.902	0.251	-23.513	C.2	1	LIG1	0.000	
19	 C45	-10.243	-0.942	-23.119	C.2	1	LIG1	0.000	
20	 C46	-5.003	0.029	-18.064	C.2	1	LIG1	0.000	
21	 C47	-3.270	0.952	-19.515	C.2	1	LIG1	0.000	
22	 C48	-4.621	0.101	-21.772	C.2	1	LIG1	0.000	
23	 C49	-6.410	-0.790	-20.267	C.2	1	LIG1	0.000	
24	 C50	-4.467	0.297	-19.347	C.2	1	LIG1	0.000	
25	 C51	-5.162	-0.124	-20.489	C.2	1	LIG1	0.000	
26	 N52	-7.082	3.248	-22.883	N.pl3	1	LIG1	0.000	
27	 N53	-7.204	-1.159	-21.362	N.pl3	1	LIG1	0.000	
28	 N54	-8.788	1.176	-24.381	N.pl3	1	LIG1	0.000	
29	 N55	-7.968	-5.545	-25.741	N.3	1	LIG1	0.000	
30	 C56	-6.005	3.579	-21.996	C.3	1	LIG1	0.000	
31	 C57	-9.220	-6.179	-25.656	C.3	1	LIG1	0.000	
32	 C58	-8.041	2.288	-24.927	C.3	1	LIG1	0.000	
33	 C59	-7.093	-2.386	-22.064	C.3	1	LIG1	0.000	
34	 C60	-8.219	-0.162	-24.381	C.3	1	LIG1	0.000	
35	 C61	-8.293	-3.136	-24.360	C.3	1	LIG1	0.000	
36	 C62	-8.155	-2.382	-23.107	C.3	1	LIG1	0.000	
37	 C63	-8.741	-0.993	-23.152	C.3	1	LIG1	0.000	
38	 S64	-7.446	-4.694	-24.413	S.O2	1	LIG1	0.000	
@<TRIPOS>BOND
1 7 20 ar
2 2 8 2
3 3 9 2
4 9 32 1
5 4 10 2
6 10 27 1
7 7 11 ar
8 12 13 ar
9 13 18 ar
10 14 17 ar
11 15 16 ar
12 16 22 ar
13 1 17 1
14 12 17 ar
15 8 18 1
16 14 19 ar
17 18 19 ar
18 20 24 ar
19 15 21 ar
20 22 25 ar
21 11 23 ar
22 23 25 ar
23 21 24 ar
24 24 25 ar
25 9 26 1
26 23 27 1
27 27 33 1
28 8 28 1
29 28 34 1
30 29 31 1
31 26 30 1
32 28 32 1
33 33 36 1
34 34 37 1
35 35 38 1
36 35 36 1
37 10 37 1
38 19 37 1
39 36 37 1
40 5 38 2
41 6 38 2
42 29 38 1
@<TRIPOS>SUBSTRUCTURE
1	LIG1	1	GROUP	1 C	LIG
