# created with PyMOL 3.1.3.1
@<TRIPOS>MOLECULE
predicted
35 40 1                 
SMALL
USER_CHARGES
@<TRIPOS>ATOM
1	CL29	-13.084	-3.054	-21.879	Cl	1	LIG1	0.000	
2	 O26	-10.191	2.375	-24.399	O.2	1	LIG1	0.000	
3	 O27	-5.357	2.627	-24.232	O.2	1	LIG1	0.000	
4	 O28	-8.322	0.596	-21.413	O.2	1	LIG1	0.000	
5	 N30	-6.015	-0.585	-17.877	N.2	1	LIG1	0.000	
6	 C31	-9.720	1.227	-24.214	C.2	1	LIG1	0.000	
7	 C32	-6.523	2.534	-24.041	C.2	1	LIG1	0.000	
8	 C33	-7.936	-0.461	-21.867	C.2	1	LIG1	0.000	
9	 C34	-6.679	-1.024	-18.921	C.2	1	LIG1	0.000	
10	 C35	-12.720	-0.677	-23.030	C.2	1	LIG1	0.000	
11	 C36	-11.945	0.327	-23.568	C.2	1	LIG1	0.000	
12	 C37	-10.734	-1.974	-22.520	C.2	1	LIG1	0.000	
13	 C38	-2.579	1.145	-20.817	C.2	1	LIG1	0.000	
14	 C39	-3.254	0.669	-21.917	C.2	1	LIG1	0.000	
15	 C40	-12.117	-1.820	-22.493	C.2	1	LIG1	0.000	
16	 C41	-10.561	0.182	-23.601	C.2	1	LIG1	0.000	
17	 C42	-9.965	-1.001	-23.142	C.2	1	LIG1	0.000	
18	 C43	-4.843	0.054	-18.055	C.2	1	LIG1	0.000	
19	 C44	-3.103	0.948	-19.535	C.2	1	LIG1	0.000	
20	 C45	-4.429	0.020	-21.753	C.2	1	LIG1	0.000	
21	 C46	-6.211	-0.836	-20.234	C.2	1	LIG1	0.000	
22	 C47	-4.296	0.288	-19.342	C.2	1	LIG1	0.000	
23	 C48	-4.979	-0.175	-20.475	C.2	1	LIG1	0.000	
24	 N49	-6.998	2.961	-22.859	N.pl3	1	LIG1	0.000	
25	 N50	-6.971	-1.230	-21.316	N.pl3	1	LIG1	0.000	
26	 N51	-8.364	0.973	-24.472	N.pl3	1	LIG1	0.000	
27	 C52	-6.140	3.494	-21.836	C.3	1	LIG1	0.000	
28	 C53	-7.533	2.286	-26.507	C.3	1	LIG1	0.000	
29	 C54	-6.652	1.378	-26.279	C.3	1	LIG1	0.000	
30	 C55	-7.533	2.021	-25.086	C.3	1	LIG1	0.000	
31	 C56	-7.850	-3.316	-24.230	C.3	1	LIG1	0.000	
32	 C57	-6.833	-2.481	-21.988	C.3	1	LIG1	0.000	
33	 C58	-7.849	-0.388	-24.342	C.3	1	LIG1	0.000	
34	 C59	-7.929	-2.499	-23.004	C.3	1	LIG1	0.000	
35	 C60	-8.452	-1.099	-23.123	C.3	1	LIG1	0.000	
@<TRIPOS>BOND
1 5 18 ar
2 2 6 2
3 3 7 2
4 7 30 1
5 4 8 2
6 8 25 1
7 5 9 ar
8 10 11 ar
9 11 16 ar
10 12 15 ar
11 13 14 ar
12 14 20 ar
13 1 15 1
14 10 15 ar
15 6 16 1
16 12 17 ar
17 16 17 ar
18 18 22 ar
19 13 19 ar
20 20 23 ar
21 9 21 ar
22 21 23 ar
23 19 22 ar
24 22 23 ar
25 7 24 1
26 21 25 1
27 25 32 1
28 6 26 1
29 26 33 1
30 24 27 1
31 28 29 1
32 26 30 1
33 28 30 1
34 29 30 1
35 32 34 1
36 33 35 1
37 31 34 1
38 8 35 1
39 17 35 1
40 34 35 1
@<TRIPOS>SUBSTRUCTURE
1	LIG1	1	GROUP	1 C	LIG
