# created with PyMOL 3.1.3.1
@<TRIPOS>MOLECULE
predicted
25 29 1                 
SMALL
USER_CHARGES
@<TRIPOS>ATOM
1	 O16	-11.139	-3.001	-21.697	O.2	1	LIG1	0.000	
2	 O17	-8.113	1.006	-21.612	O.2	1	LIG1	0.000	
3	 O18	-6.447	-3.172	-21.558	O.2	1	LIG1	0.000	
4	 N19	-6.009	-0.487	-17.833	N.2	1	LIG1	0.000	
5	 C20	-11.290	-2.350	-22.608	C.2	1	LIG1	0.000	
6	 C21	-6.703	-0.854	-18.903	C.2	1	LIG1	0.000	
7	 C22	-2.527	1.217	-20.621	C.2	1	LIG1	0.000	
8	 C23	-3.199	0.824	-21.753	C.2	1	LIG1	0.000	
9	 C24	-4.822	0.091	-17.970	C.2	1	LIG1	0.000	
10	 C25	-3.049	0.992	-19.393	C.2	1	LIG1	0.000	
11	 C26	-4.418	0.200	-21.648	C.2	1	LIG1	0.000	
12	 C27	-6.235	-0.685	-20.187	C.2	1	LIG1	0.000	
13	 C28	-7.020	-2.176	-21.997	C.2	1	LIG1	0.000	
14	 C29	-7.734	-1.996	-23.266	C.3	1	LIG1	0.000	
15	 C30	-7.814	-0.106	-22.004	C.2	1	LIG1	0.000	
16	 C31	-4.263	0.357	-19.237	C.2	1	LIG1	0.000	
17	 C32	-4.970	-0.035	-20.376	C.2	1	LIG1	0.000	
18	 N33	-10.346	-1.882	-23.321	N.pl3	1	LIG1	0.000	
19	 N34	-6.990	-1.006	-21.344	N.pl3	1	LIG1	0.000	
20	 N35	-8.213	-0.627	-23.121	N.pl3	1	LIG1	0.000	
21	 C36	-12.741	-1.953	-22.980	C.3	1	LIG1	0.000	
22	 C37	-10.510	-0.474	-23.534	C.3	1	LIG1	0.000	
23	 C38	-9.079	-1.585	-25.046	C.3	1	LIG1	0.000	
24	 C39	-9.250	-0.287	-24.066	C.3	1	LIG1	0.000	
25	 C40	-9.024	-2.477	-23.905	C.3	1	LIG1	0.000	
@<TRIPOS>BOND
1 4 9 ar
2 1 5 2
3 5 18 1
4 4 6 ar
5 7 8 ar
6 8 11 ar
7 9 16 ar
8 7 10 ar
9 11 17 ar
10 6 12 ar
11 12 17 ar
12 3 13 2
13 13 19 1
14 13 14 1
15 14 20 1
16 2 15 2
17 15 20 1
18 10 16 ar
19 16 17 ar
20 18 22 1
21 18 25 1
22 12 19 1
23 15 19 1
24 5 21 1
25 22 24 1
26 23 25 1
27 20 24 1
28 23 24 1
29 14 25 1
@<TRIPOS>SUBSTRUCTURE
1	LIG1	1	GROUP	1 C	LIG
