# created with PyMOL 3.1.3.1
@<TRIPOS>MOLECULE
predicted
34 38 1                 
SMALL
USER_CHARGES
@<TRIPOS>ATOM
1	CL29	-13.249	-2.935	-21.873	Cl	1	LIG1	0.000	
2	 O26	-10.929	2.785	-24.202	O.2	1	LIG1	0.000	
3	 O27	-6.258	2.948	-23.928	O.2	1	LIG1	0.000	
4	 O28	-8.698	0.918	-21.440	O.2	1	LIG1	0.000	
5	 N30	-6.274	-0.500	-17.996	N.2	1	LIG1	0.000	
6	 C31	-10.352	1.681	-24.124	C.2	1	LIG1	0.000	
7	 C32	-7.385	3.278	-23.948	C.2	1	LIG1	0.000	
8	 C33	-8.275	-0.093	-21.980	C.2	1	LIG1	0.000	
9	 C34	-6.944	-0.857	-19.064	C.2	1	LIG1	0.000	
10	 C35	-13.097	-0.520	-22.947	C.2	1	LIG1	0.000	
11	 C36	-12.438	0.549	-23.467	C.2	1	LIG1	0.000	
12	 C37	-10.985	-1.662	-22.568	C.2	1	LIG1	0.000	
13	 C38	-2.897	1.521	-20.753	C.2	1	LIG1	0.000	
14	 C39	-3.567	1.155	-21.893	C.2	1	LIG1	0.000	
15	 C40	-12.376	-1.632	-22.479	C.2	1	LIG1	0.000	
16	 C41	-11.044	0.520	-23.570	C.2	1	LIG1	0.000	
17	 C42	-10.313	-0.634	-23.213	C.2	1	LIG1	0.000	
18	 C43	-5.122	0.152	-18.116	C.2	1	LIG1	0.000	
19	 C44	-3.410	1.186	-19.503	C.2	1	LIG1	0.000	
20	 C45	-4.737	0.481	-21.788	C.2	1	LIG1	0.000	
21	 C46	-6.521	-0.533	-20.364	C.2	1	LIG1	0.000	
22	 C47	-4.595	0.506	-19.374	C.2	1	LIG1	0.000	
23	 C48	-5.285	0.146	-20.541	C.2	1	LIG1	0.000	
24	 N49	-7.891	4.068	-23.000	N.pl3	1	LIG1	0.000	
25	 N50	-7.284	-0.865	-21.468	N.pl3	1	LIG1	0.000	
26	 N51	-9.015	1.574	-24.429	N.pl3	1	LIG1	0.000	
27	 C52	-7.050	4.642	-21.994	C.3	1	LIG1	0.000	
28	 C53	-8.341	2.717	-25.000	C.3	1	LIG1	0.000	
29	 C54	-6.791	-2.010	-24.373	C.3	1	LIG1	0.000	
30	 C55	-8.914	-3.092	-23.825	C.3	1	LIG1	0.000	
31	 C56	-7.128	-2.100	-22.182	C.3	1	LIG1	0.000	
32	 C57	-8.362	0.270	-24.477	C.3	1	LIG1	0.000	
33	 C58	-8.036	-1.967	-23.421	C.3	1	LIG1	0.000	
34	 C59	-8.794	-0.640	-23.302	C.3	1	LIG1	0.000	
@<TRIPOS>BOND
1 5 18 ar
2 2 6 2
3 3 7 2
4 7 28 1
5 4 8 2
6 8 25 1
7 5 9 ar
8 10 11 ar
9 11 16 ar
10 12 15 ar
11 13 14 ar
12 14 20 ar
13 1 15 1
14 10 15 ar
15 6 16 1
16 12 17 ar
17 16 17 ar
18 18 22 ar
19 13 19 ar
20 20 23 ar
21 9 21 ar
22 21 23 ar
23 19 22 ar
24 22 23 ar
25 7 24 1
26 21 25 1
27 25 31 1
28 6 26 1
29 26 32 1
30 24 27 1
31 26 28 1
32 31 33 1
33 32 34 1
34 29 33 1
35 30 33 1
36 8 34 1
37 17 34 1
38 33 34 1
@<TRIPOS>SUBSTRUCTURE
1	LIG1	1	GROUP	1 C	LIG
