# created with PyMOL 3.1.3.1
@<TRIPOS>MOLECULE
predicted
35 40 1                 
SMALL
USER_CHARGES
@<TRIPOS>ATOM
1	 O23	-10.845	2.030	-24.488	O.2	1	LIG1	0.000	
2	 O24	-8.658	0.450	-21.471	O.2	1	LIG1	0.000	
3	 N26	-5.203	2.908	-23.740	N.2	1	LIG1	0.000	
4	 N27	-6.171	-0.603	-17.971	N.2	1	LIG1	0.000	
5	 N28	-5.876	2.269	-24.725	N.2	1	LIG1	0.000	
6	 N29	-6.024	3.443	-22.923	N.2	1	LIG1	0.000	
7	 C30	-10.290	0.928	-24.263	C.2	1	LIG1	0.000	
8	 C31	-8.237	-0.602	-21.910	C.2	1	LIG1	0.000	
9	 C32	-6.851	-1.059	-18.996	C.2	1	LIG1	0.000	
10	 C33	-13.048	-1.130	-22.904	C.2	1	LIG1	0.000	
11	 C34	-12.374	-0.110	-23.494	C.2	1	LIG1	0.000	
12	 C35	-10.970	-2.285	-22.436	C.2	1	LIG1	0.000	
13	 C36	-2.851	1.204	-20.945	C.2	1	LIG1	0.000	
14	 C37	-3.528	0.714	-22.037	C.2	1	LIG1	0.000	
15	 C38	-12.359	-2.221	-22.365	C.2	1	LIG1	0.000	
16	 C39	-10.991	-0.164	-23.591	C.2	1	LIG1	0.000	
17	 C40	-10.280	-1.288	-23.115	C.2	1	LIG1	0.000	
18	 C41	-5.016	0.055	-18.161	C.2	1	LIG1	0.000	
19	 C42	-3.333	0.988	-19.663	C.2	1	LIG1	0.000	
20	 C43	-4.692	0.044	-21.859	C.2	1	LIG1	0.000	
21	 C44	-6.434	-0.861	-20.313	C.2	1	LIG1	0.000	
22	 C45	-7.163	2.420	-24.470	C.2	1	LIG1	0.000	
23	 C46	-4.517	0.301	-19.458	C.2	1	LIG1	0.000	
24	 C47	-5.219	-0.170	-20.572	C.2	1	LIG1	0.000	
25	 N48	-7.204	-1.293	-21.376	N.pl3	1	LIG1	0.000	
26	 N49	-8.952	0.777	-24.562	N.pl3	1	LIG1	0.000	
27	 N50	-7.247	3.166	-23.362	N.2	1	LIG1	0.000	
28	 C51	-8.269	1.824	-25.290	C.3	1	LIG1	0.000	
29	 C52	-8.438	3.605	-22.717	C.3	1	LIG1	0.000	
30	 C53	-8.041	-3.489	-24.204	C.3	1	LIG1	0.000	
31	 C54	-7.016	-2.548	-22.036	C.3	1	LIG1	0.000	
32	 C55	-8.268	-0.534	-24.416	C.3	1	LIG1	0.000	
33	 C56	-8.161	-2.649	-23.002	C.3	1	LIG1	0.000	
34	 C57	-8.783	-1.289	-23.149	C.3	1	LIG1	0.000	
35	 F25	-13.042	-3.184	-21.797	 F	1	LIG1	0.000	
@<TRIPOS>BOND
1 3 6 ar
2 4 18 ar
3 3 5 ar
4 6 27 ar
5 1 7 2
6 7 16 1
7 2 8 2
8 8 34 1
9 4 9 ar
10 10 15 ar
11 10 11 ar
12 12 17 ar
13 13 14 ar
14 14 20 ar
15 12 15 ar
16 15 35 1
17 11 16 ar
18 16 17 ar
19 18 23 ar
20 13 19 ar
21 20 24 ar
22 9 21 ar
23 21 24 ar
24 5 22 ar
25 22 27 ar
26 19 23 ar
27 23 24 ar
28 8 25 1
29 21 25 1
30 7 26 1
31 26 28 1
32 27 29 1
33 22 28 1
34 30 33 1
35 25 31 1
36 26 32 1
37 31 33 1
38 33 34 1
39 17 34 1
40 32 34 1
@<TRIPOS>SUBSTRUCTURE
1	LIG1	1	GROUP	1 C	LIG
