# created with PyMOL 3.1.3.1
@<TRIPOS>MOLECULE
predicted
39 44 1                 
SMALL
USER_CHARGES
@<TRIPOS>ATOM
1	CL31	-13.183	-3.167	-22.153	Cl	1	LIG1	0.000	
2	 O28	-10.469	2.429	-24.499	O.2	1	LIG1	0.000	
3	 O29	-7.730	1.792	-26.930	O.2	1	LIG1	0.000	
4	 O30	-8.460	0.618	-21.545	O.2	1	LIG1	0.000	
5	 N32	-6.121	-0.672	-17.998	N.2	1	LIG1	0.000	
6	 C33	-9.952	1.308	-24.325	C.2	1	LIG1	0.000	
7	 C34	-7.401	2.561	-26.038	C.2	1	LIG1	0.000	
8	 C35	-8.064	-0.439	-22.013	C.2	1	LIG1	0.000	
9	 C36	-6.805	-1.073	-19.076	C.2	1	LIG1	0.000	
10	 C37	-8.672	-6.062	-27.080	C.2	1	LIG1	0.000	
11	 C38	-8.786	-6.183	-25.721	C.2	1	LIG1	0.000	
12	 C39	-8.127	-4.910	-27.614	C.2	1	LIG1	0.000	
13	 C40	-12.841	-0.781	-23.320	C.2	1	LIG1	0.000	
14	 C41	-12.109	0.245	-23.834	C.2	1	LIG1	0.000	
15	 C42	-8.337	-5.149	-24.878	C.2	1	LIG1	0.000	
16	 C43	-7.652	-3.897	-26.766	C.2	1	LIG1	0.000	
17	 C44	-10.798	-1.973	-22.763	C.2	1	LIG1	0.000	
18	 C45	-2.699	1.166	-20.863	C.2	1	LIG1	0.000	
19	 C46	-3.386	0.749	-22.001	C.2	1	LIG1	0.000	
20	 C47	-12.191	-1.897	-22.783	C.2	1	LIG1	0.000	
21	 C48	-10.728	0.174	-23.835	C.2	1	LIG1	0.000	
22	 C49	-7.791	-3.983	-25.387	C.2	1	LIG1	0.000	
23	 C50	-10.065	-0.976	-23.362	C.2	1	LIG1	0.000	
24	 C51	-4.946	-0.054	-18.143	C.2	1	LIG1	0.000	
25	 C52	-3.213	0.912	-19.595	C.2	1	LIG1	0.000	
26	 C53	-4.577	0.097	-21.880	C.2	1	LIG1	0.000	
27	 C54	-6.336	-0.854	-20.378	C.2	1	LIG1	0.000	
28	 C55	-4.404	0.237	-19.433	C.2	1	LIG1	0.000	
29	 C56	-5.100	-0.173	-20.590	C.2	1	LIG1	0.000	
30	 N57	-6.719	3.633	-26.249	N.pl3	1	LIG1	0.000	
31	 N58	-7.094	-1.232	-21.479	N.pl3	1	LIG1	0.000	
32	 N59	-8.576	1.173	-24.431	N.pl3	1	LIG1	0.000	
33	 C60	-6.337	3.955	-27.582	C.3	1	LIG1	0.000	
34	 C61	-7.739	2.294	-24.587	C.3	1	LIG1	0.000	
35	 C62	-7.256	-2.860	-24.529	C.3	1	LIG1	0.000	
36	 C63	-6.963	-2.484	-22.194	C.3	1	LIG1	0.000	
37	 C64	-7.979	-0.136	-24.463	C.3	1	LIG1	0.000	
38	 C65	-7.995	-2.427	-23.346	C.3	1	LIG1	0.000	
39	 C66	-8.552	-1.014	-23.313	C.3	1	LIG1	0.000	
@<TRIPOS>BOND
1 5 24 ar
2 2 6 2
3 3 7 2
4 7 34 1
5 4 8 2
6 8 31 1
7 5 9 ar
8 10 12 ar
9 10 11 ar
10 12 16 ar
11 13 14 ar
12 14 21 ar
13 11 15 ar
14 17 20 ar
15 18 19 ar
16 19 26 ar
17 1 20 1
18 13 20 ar
19 6 21 1
20 15 22 ar
21 16 22 ar
22 17 23 ar
23 21 23 ar
24 24 28 ar
25 18 25 ar
26 26 29 ar
27 9 27 ar
28 27 29 ar
29 25 28 ar
30 28 29 ar
31 7 30 1
32 27 31 1
33 31 36 1
34 6 32 1
35 32 37 1
36 30 33 1
37 32 34 1
38 22 35 1
39 36 38 1
40 37 39 1
41 35 38 1
42 8 39 1
43 23 39 1
44 38 39 1
@<TRIPOS>SUBSTRUCTURE
1	LIG1	1	GROUP	1 C	LIG
