# created with PyMOL 3.1.3.1
@<TRIPOS>MOLECULE
predicted
27 30 1                 
SMALL
USER_CHARGES
@<TRIPOS>ATOM
1	 O21	8.341	1.507	20.831	O.2	1	LIG1	0.000	
2	 N22	6.221	0.168	17.305	N.2	1	LIG1	0.000	
3	 C23	8.340	0.384	21.296	C.2	1	LIG1	0.000	
4	 C24	6.976	1.035	24.666	C.3	1	LIG1	0.000	
5	 C25	6.738	-0.426	25.100	C.3	1	LIG1	0.000	
6	 C26	7.858	1.853	23.848	C.3	1	LIG1	0.000	
7	 C27	7.187	-1.556	24.255	C.3	1	LIG1	0.000	
8	 C28	9.216	1.275	23.344	C.3	1	LIG1	0.000	
9	 C29	8.651	-1.665	24.172	C.3	1	LIG1	0.000	
10	 C30	6.982	-0.344	18.284	C.2	1	LIG1	0.000	
11	 C31	13.592	-1.265	22.991	C.2	1	LIG1	0.000	
12	 C32	12.888	-1.196	21.793	C.2	1	LIG1	0.000	
13	 C33	12.926	-1.300	24.165	C.2	1	LIG1	0.000	
14	 C34	11.508	-1.136	21.817	C.2	1	LIG1	0.000	
15	 C35	11.523	-1.252	24.172	C.2	1	LIG1	0.000	
16	 C36	3.035	1.705	20.503	C.2	1	LIG1	0.000	
17	 C37	3.805	1.225	21.515	C.2	1	LIG1	0.000	
18	 C38	10.844	-1.224	22.986	C.2	1	LIG1	0.000	
19	 C39	5.089	0.750	17.571	C.2	1	LIG1	0.000	
20	 C40	3.444	1.559	19.192	C.2	1	LIG1	0.000	
21	 C41	4.980	0.604	21.256	C.2	1	LIG1	0.000	
22	 C42	6.640	-0.215	19.615	C.2	1	LIG1	0.000	
23	 C43	4.639	0.921	18.887	C.2	1	LIG1	0.000	
24	 C44	5.429	0.416	19.945	C.2	1	LIG1	0.000	
25	 N45	8.946	0.178	22.500	N.pl3	1	LIG1	0.000	
26	 C46	7.577	-0.738	20.639	C.3	1	LIG1	0.000	
27	 C47	9.332	-1.176	22.945	C.3	1	LIG1	0.000	
@<TRIPOS>BOND
1 1 3 2
2 2 19 ar
3 3 25 1
4 3 26 1
5 4 5 1
6 5 7 1
7 4 6 1
8 7 9 1
9 6 8 1
10 9 27 1
11 2 10 ar
12 11 13 ar
13 11 12 ar
14 13 15 ar
15 12 14 ar
16 16 17 ar
17 17 21 ar
18 14 18 ar
19 15 18 ar
20 19 23 ar
21 16 20 ar
22 21 24 ar
23 10 22 ar
24 22 24 ar
25 20 23 ar
26 23 24 ar
27 8 25 1
28 25 27 1
29 22 26 1
30 18 27 1
@<TRIPOS>SUBSTRUCTURE
1	LIG1	1	GROUP	1 C	LIG
