# created with PyMOL 3.1.3.1
@<TRIPOS>MOLECULE
predicted
35 40 1                 
SMALL
USER_CHARGES
@<TRIPOS>ATOM
1	 O25	10.369	3.185	23.938	O.2	1	LIG1	0.000	
2	 O26	8.612	1.308	20.987	O.2	1	LIG1	0.000	
3	 N28	6.130	0.084	17.541	N.2	1	LIG1	0.000	
4	 N29	5.281	4.404	22.450	N.2	1	LIG1	0.000	
5	 C30	9.959	2.038	23.770	C.2	1	LIG1	0.000	
6	 C31	8.246	0.236	21.453	C.2	1	LIG1	0.000	
7	 C32	5.590	3.538	23.466	C.2	1	LIG1	0.000	
8	 C33	6.854	-0.317	18.567	C.2	1	LIG1	0.000	
9	 C34	13.064	0.141	22.843	C.2	1	LIG1	0.000	
10	 C35	12.237	1.152	23.263	C.2	1	LIG1	0.000	
11	 C36	11.143	-1.235	22.295	C.2	1	LIG1	0.000	
12	 C37	2.704	1.694	20.532	C.2	1	LIG1	0.000	
13	 C38	3.431	1.269	21.622	C.2	1	LIG1	0.000	
14	 C39	12.540	-1.040	22.366	C.2	1	LIG1	0.000	
15	 C40	10.855	0.977	23.255	C.2	1	LIG1	0.000	
16	 C41	6.965	3.552	23.582	C.2	1	LIG1	0.000	
17	 C42	10.293	-0.243	22.808	C.2	1	LIG1	0.000	
18	 C43	4.935	0.661	17.738	C.2	1	LIG1	0.000	
19	 C44	3.199	1.493	19.244	C.2	1	LIG1	0.000	
20	 C45	4.643	0.659	21.444	C.2	1	LIG1	0.000	
21	 C46	6.431	-0.138	19.889	C.2	1	LIG1	0.000	
22	 C47	7.466	4.483	22.725	C.2	1	LIG1	0.000	
23	 C48	4.421	0.885	19.034	C.2	1	LIG1	0.000	
24	 C49	5.172	0.472	20.150	C.2	1	LIG1	0.000	
25	 N50	7.242	-0.521	20.955	N.pl3	1	LIG1	0.000	
26	 N51	8.604	1.741	24.009	N.pl3	1	LIG1	0.000	
27	 N52	6.412	4.996	22.037	N.2	1	LIG1	0.000	
28	 C53	7.745	2.723	24.631	C.3	1	LIG1	0.000	
29	 C54	6.371	6.016	21.073	C.3	1	LIG1	0.000	
30	 C55	8.187	-2.600	23.829	C.3	1	LIG1	0.000	
31	 C56	7.133	-1.770	21.641	C.3	1	LIG1	0.000	
32	 C57	8.107	0.372	23.923	C.3	1	LIG1	0.000	
33	 C58	8.288	-1.786	22.611	C.3	1	LIG1	0.000	
34	 C59	8.778	-0.376	22.739	C.3	1	LIG1	0.000	
35	 F27	13.392	-1.992	21.968	 F	1	LIG1	0.000	
@<TRIPOS>BOND
1 3 18 ar
2 4 27 ar
3 1 5 2
4 5 15 1
5 2 6 2
6 6 34 1
7 4 7 ar
8 3 8 ar
9 9 14 ar
10 9 10 ar
11 11 17 ar
12 12 13 ar
13 13 20 ar
14 11 14 ar
15 14 35 1
16 10 15 ar
17 15 17 ar
18 7 16 ar
19 16 22 ar
20 18 23 ar
21 12 19 ar
22 20 24 ar
23 8 21 ar
24 21 24 ar
25 19 23 ar
26 23 24 ar
27 6 25 1
28 21 25 1
29 5 26 1
30 26 28 1
31 22 27 ar
32 27 29 1
33 16 28 1
34 30 33 1
35 25 31 1
36 26 32 1
37 31 33 1
38 33 34 1
39 17 34 1
40 32 34 1
@<TRIPOS>SUBSTRUCTURE
1	LIG1	1	GROUP	1 C	LIG
