# created with PyMOL 3.1.3.1
@<TRIPOS>MOLECULE
predicted
34 39 1                 
SMALL
USER_CHARGES
@<TRIPOS>ATOM
1	CL31	13.487	-1.867	21.871	Cl	1	LIG1	0.000	
2	 O29	10.250	3.776	23.412	O.2	1	LIG1	0.000	
3	 O30	8.546	1.629	20.683	O.2	1	LIG1	0.000	
4	 N32	6.179	0.159	17.287	N.2	1	LIG1	0.000	
5	 C33	9.841	2.609	23.358	C.2	1	LIG1	0.000	
6	 C34	8.184	0.594	21.231	C.2	1	LIG1	0.000	
7	 C35	6.885	-0.180	18.357	C.2	1	LIG1	0.000	
8	 C36	12.921	0.635	22.622	C.2	1	LIG1	0.000	
9	 C37	12.105	1.678	22.950	C.2	1	LIG1	0.000	
10	 C38	11.015	-0.772	22.204	C.2	1	LIG1	0.000	
11	 C39	2.797	2.057	20.113	C.2	1	LIG1	0.000	
12	 C40	3.507	1.714	21.242	C.2	1	LIG1	0.000	
13	 C41	12.379	-0.571	22.240	C.2	1	LIG1	0.000	
14	 C42	10.734	1.497	22.958	C.2	1	LIG1	0.000	
15	 C43	10.177	0.244	22.630	C.2	1	LIG1	0.000	
16	 C44	5.005	0.769	17.435	C.2	1	LIG1	0.000	
17	 C45	3.288	1.746	18.854	C.2	1	LIG1	0.000	
18	 C46	4.689	1.061	21.116	C.2	1	LIG1	0.000	
19	 C47	6.439	0.085	19.656	C.2	1	LIG1	0.000	
20	 C48	4.487	1.094	18.704	C.2	1	LIG1	0.000	
21	 C49	5.205	0.751	19.850	C.2	1	LIG1	0.000	
22	 N50	7.217	-0.218	20.756	N.pl3	1	LIG1	0.000	
23	 N51	8.484	2.357	23.550	N.pl3	1	LIG1	0.000	
24	 C52	7.590	3.417	23.902	C.3	1	LIG1	0.000	
25	 C53	6.070	6.997	21.544	C.3	1	LIG1	0.000	
26	 C54	8.013	-1.987	23.840	C.3	1	LIG1	0.000	
27	 C55	7.099	-1.395	21.531	C.3	1	LIG1	0.000	
28	 C56	8.015	0.982	23.664	C.3	1	LIG1	0.000	
29	 C57	6.935	3.917	22.597	C.3	1	LIG1	0.000	
30	 C58	7.192	6.369	22.494	C.3	1	LIG1	0.000	
31	 C59	5.374	5.559	21.685	C.3	1	LIG1	0.000	
32	 C60	8.205	-1.304	22.570	C.3	1	LIG1	0.000	
33	 C61	8.683	0.108	22.560	C.3	1	LIG1	0.000	
34	 N62	6.335	5.210	22.771	N.3	1	LIG1	0.000	
@<TRIPOS>BOND
1 4 16 ar
2 2 5 2
3 5 14 1
4 3 6 2
5 6 33 1
6 4 7 ar
7 8 13 ar
8 8 9 ar
9 10 15 ar
10 11 12 ar
11 12 18 ar
12 1 13 1
13 10 13 ar
14 9 14 ar
15 14 15 ar
16 16 20 ar
17 11 17 ar
18 18 21 ar
19 7 19 ar
20 19 21 ar
21 17 20 ar
22 20 21 ar
23 6 22 1
24 19 22 1
25 5 23 1
26 23 24 1
27 24 29 1
28 25 31 1
29 26 32 1
30 22 27 1
31 23 28 1
32 29 34 1
33 25 30 1
34 27 32 1
35 32 33 1
36 15 33 1
37 28 33 1
38 30 34 1
39 31 34 1
@<TRIPOS>SUBSTRUCTURE
1	LIG1	1	GROUP	1 C	LIG
