# created with PyMOL 3.1.3.1
@<TRIPOS>MOLECULE
predicted
40 45 1                 
SMALL
USER_CHARGES
@<TRIPOS>ATOM
1	CL31	-13.240	-3.049	-21.749	Cl	1	LIG1	0.000	
2	 O28	-10.656	2.528	-24.310	O.2	1	LIG1	0.000	
3	 O29	-5.947	2.794	-23.990	O.2	1	LIG1	0.000	
4	 O30	-8.559	0.837	-21.353	O.2	1	LIG1	0.000	
5	 N32	-5.915	-6.406	-26.584	N.2	1	LIG1	0.000	
6	 N33	-6.137	-0.567	-17.797	N.2	1	LIG1	0.000	
7	 S34	-7.824	-4.899	-26.686	S.2	1	LIG1	0.000	
8	 C35	-10.119	1.420	-24.128	C.2	1	LIG1	0.000	
9	 C36	-7.109	2.958	-23.910	C.2	1	LIG1	0.000	
10	 C37	-8.171	-0.228	-21.800	C.2	1	LIG1	0.000	
11	 C38	-6.866	-5.971	-27.411	C.2	1	LIG1	0.000	
12	 C39	-6.027	-5.833	-25.378	C.2	1	LIG1	0.000	
13	 C40	-6.828	-0.968	-18.862	C.2	1	LIG1	0.000	
14	 C41	-7.015	-4.935	-25.244	C.2	1	LIG1	0.000	
15	 C42	-12.959	-0.652	-22.922	C.2	1	LIG1	0.000	
16	 C43	-12.250	0.376	-23.463	C.2	1	LIG1	0.000	
17	 C44	-10.896	-1.844	-22.452	C.2	1	LIG1	0.000	
18	 C45	-2.902	1.547	-20.653	C.2	1	LIG1	0.000	
19	 C46	-3.598	1.159	-21.788	C.2	1	LIG1	0.000	
20	 C47	-12.281	-1.768	-22.407	C.2	1	LIG1	0.000	
21	 C48	-10.870	0.315	-23.532	C.2	1	LIG1	0.000	
22	 C49	-10.193	-0.833	-23.076	C.2	1	LIG1	0.000	
23	 C50	-4.999	0.112	-17.961	C.2	1	LIG1	0.000	
24	 C51	-3.356	1.200	-19.383	C.2	1	LIG1	0.000	
25	 C52	-4.747	0.444	-21.658	C.2	1	LIG1	0.000	
26	 C53	-6.426	-0.631	-20.167	C.2	1	LIG1	0.000	
27	 C54	-4.510	0.476	-19.232	C.2	1	LIG1	0.000	
28	 C55	-5.213	0.093	-20.383	C.2	1	LIG1	0.000	
29	 N56	-7.652	3.607	-22.879	N.pl3	1	LIG1	0.000	
30	 N57	-7.299	-4.206	-24.119	N.pl3	1	LIG1	0.000	
31	 N58	-7.193	-0.998	-21.255	N.pl3	1	LIG1	0.000	
32	 N59	-8.766	1.266	-24.371	N.pl3	1	LIG1	0.000	
33	 C60	-6.998	-6.434	-28.828	C.3	1	LIG1	0.000	
34	 C61	-6.840	4.269	-21.905	C.3	1	LIG1	0.000	
35	 C62	-8.035	2.352	-24.941	C.3	1	LIG1	0.000	
36	 C63	-8.150	-3.015	-24.166	C.3	1	LIG1	0.000	
37	 C64	-7.068	-2.229	-21.937	C.3	1	LIG1	0.000	
38	 C65	-8.148	-0.029	-24.285	C.3	1	LIG1	0.000	
39	 C66	-8.103	-2.233	-22.987	C.3	1	LIG1	0.000	
40	 C67	-8.687	-0.861	-23.069	C.3	1	LIG1	0.000	
@<TRIPOS>BOND
1 5 11 ar
2 6 23 ar
3 2 8 2
4 3 9 2
5 9 35 1
6 4 10 2
7 10 31 1
8 7 11 ar
9 11 33 1
10 5 12 ar
11 6 13 ar
12 7 14 ar
13 12 14 ar
14 15 16 ar
15 16 21 ar
16 17 20 ar
17 18 19 ar
18 19 25 ar
19 1 20 1
20 15 20 ar
21 8 21 1
22 17 22 ar
23 21 22 ar
24 23 27 ar
25 18 24 ar
26 25 28 ar
27 13 26 ar
28 26 28 ar
29 24 27 ar
30 27 28 ar
31 9 29 1
32 14 30 1
33 26 31 1
34 31 37 1
35 8 32 1
36 32 38 1
37 29 34 1
38 32 35 1
39 30 36 1
40 37 39 1
41 38 40 1
42 36 39 1
43 10 40 1
44 22 40 1
45 39 40 1
@<TRIPOS>SUBSTRUCTURE
1	LIG1	1	GROUP	1 C	LIG
