# created with PyMOL 3.1.3.1
@<TRIPOS>MOLECULE
predicted
24 27 1                 
SMALL
USER_CHARGES
@<TRIPOS>ATOM
1	 O17	-7.850	1.256	-22.007	O.2	1	LIG1	0.000	
2	 N18	-6.244	-0.465	-17.877	N.2	1	LIG1	0.000	
3	 N19	-7.713	-2.141	-21.679	N.2	1	LIG1	0.000	
4	 C20	-6.972	-0.802	-18.925	C.2	1	LIG1	0.000	
5	 C21	-13.407	-1.887	-23.147	C.3	1	LIG1	0.000	
6	 C22	-12.644	-1.987	-22.014	C.3	1	LIG1	0.000	
7	 C23	-12.873	-2.204	-24.360	C.3	1	LIG1	0.000	
8	 C24	-11.308	-2.340	-22.115	C.3	1	LIG1	0.000	
9	 C25	-11.529	-2.559	-24.442	C.3	1	LIG1	0.000	
10	 C26	-2.800	1.141	-20.714	C.2	1	LIG1	0.000	
11	 C27	-3.509	0.797	-21.832	C.2	1	LIG1	0.000	
12	 C28	-10.764	-2.623	-23.323	C.3	1	LIG1	0.000	
13	 C29	-5.060	0.077	-18.026	C.2	1	LIG1	0.000	
14	 C30	-3.298	0.922	-19.457	C.2	1	LIG1	0.000	
15	 C31	-4.738	0.235	-21.717	C.2	1	LIG1	0.000	
16	 C32	-6.540	-0.581	-20.223	C.2	1	LIG1	0.000	
17	 C33	-8.542	-1.952	-22.754	C.2	1	LIG1	0.000	
18	 C34	-7.972	0.025	-22.125	C.2	1	LIG1	0.000	
19	 C35	-4.532	0.345	-19.293	C.2	1	LIG1	0.000	
20	 C36	-5.278	0.002	-20.433	C.2	1	LIG1	0.000	
21	 N37	-7.365	-0.899	-21.308	N.2	1	LIG1	0.000	
22	 N38	-8.656	-0.646	-23.039	N.2	1	LIG1	0.000	
23	 C39	-9.305	-2.987	-23.460	C.3	1	LIG1	0.000	
24	 C40	-9.394	-0.036	-24.123	C.3	1	LIG1	0.000	
@<TRIPOS>BOND
1 2 13 ar
2 3 21 ar
3 2 4 ar
4 5 7 1
5 5 6 1
6 7 9 1
7 6 8 1
8 10 11 ar
9 11 15 ar
10 8 12 1
11 9 12 1
12 13 19 ar
13 10 14 ar
14 15 20 ar
15 4 16 ar
16 16 20 ar
17 3 17 ar
18 17 23 1
19 1 18 2
20 14 19 ar
21 19 20 ar
22 16 21 1
23 18 21 ar
24 17 22 ar
25 18 22 ar
26 12 23 1
27 22 24 1
@<TRIPOS>SUBSTRUCTURE
1	LIG1	1	GROUP	1 C	LIG
