# created with PyMOL 3.1.3.1
@<TRIPOS>MOLECULE
predicted
31 36 1                 
SMALL
USER_CHARGES
@<TRIPOS>ATOM
1	CL29	-13.488	-2.617	-21.412	Cl	1	LIG1	0.000	
2	 O28	-8.502	0.594	-21.019	O.2	1	LIG1	0.000	
3	 N30	-6.195	-0.559	-17.614	N.2	1	LIG1	0.000	
4	 C31	-8.316	-0.435	-21.596	C.2	1	LIG1	0.000	
5	 C32	-6.917	-1.089	-18.624	C.2	1	LIG1	0.000	
6	 C33	-11.995	-3.520	-24.928	C.3	1	LIG1	0.000	
7	 C34	-12.864	-3.408	-23.857	C.3	1	LIG1	0.000	
8	 C35	-10.705	-3.008	-24.789	C.3	1	LIG1	0.000	
9	 C36	-11.162	-2.268	-22.573	C.3	1	LIG1	0.000	
10	 C37	-3.065	1.117	-20.787	C.2	1	LIG1	0.000	
11	 C38	-3.786	0.585	-21.808	C.2	1	LIG1	0.000	
12	 C39	-12.447	-2.784	-22.690	C.3	1	LIG1	0.000	
13	 C40	-10.306	-2.405	-23.618	C.3	1	LIG1	0.000	
14	 C41	-5.081	0.068	-17.858	C.2	1	LIG1	0.000	
15	 C42	-3.476	0.968	-19.474	C.2	1	LIG1	0.000	
16	 C43	-4.944	-0.095	-21.578	C.2	1	LIG1	0.000	
17	 C44	-6.573	-1.004	-19.959	C.2	1	LIG1	0.000	
18	 C45	-4.631	0.251	-19.191	C.2	1	LIG1	0.000	
19	 C46	-5.396	-0.291	-20.265	C.2	1	LIG1	0.000	
20	 N47	-8.863	-0.565	-22.866	N.pl3	1	LIG1	0.000	
21	 C48	-7.482	-1.558	-21.046	C.3	1	LIG1	0.000	
22	 C49	-8.879	-1.880	-23.537	C.3	1	LIG1	0.000	
23	 C50	-12.342	3.814	-22.798	C.3	1	LIG1	0.000	
24	 C51	-11.971	4.526	-24.029	C.3	1	LIG1	0.000	
25	 C52	-9.784	0.661	-24.946	C.3	1	LIG1	0.000	
26	 C53	-8.353	1.660	-23.853	C.3	1	LIG1	0.000	
27	 C54	-10.852	3.822	-23.298	C.3	1	LIG1	0.000	
28	 C55	-10.443	1.421	-22.869	C.3	1	LIG1	0.000	
29	 C56	-9.443	0.587	-23.528	C.3	1	LIG1	0.000	
30	 C57	-9.359	2.287	-24.748	C.3	1	LIG1	0.000	
31	 N58	-10.543	2.558	-23.793	N.3	1	LIG1	0.000	
@<TRIPOS>BOND
1 2 4 2
2 3 14 ar
3 4 20 1
4 4 21 1
5 3 5 ar
6 6 7 1
7 7 12 1
8 6 8 1
9 10 11 ar
10 11 16 ar
11 1 12 1
12 9 12 1
13 8 13 1
14 9 13 1
15 14 18 ar
16 10 15 ar
17 16 19 ar
18 5 17 ar
19 17 19 ar
20 15 18 ar
21 18 19 ar
22 20 22 1
23 20 29 1
24 17 21 1
25 13 22 1
26 23 24 1
27 23 27 1
28 24 27 1
29 28 31 1
30 25 29 1
31 26 29 1
32 28 29 1
33 25 30 1
34 26 30 1
35 27 31 1
36 30 31 1
@<TRIPOS>SUBSTRUCTURE
1	LIG1	1	GROUP	1 C	LIG
