# created with PyMOL 3.1.3.1
@<TRIPOS>MOLECULE
predicted
34 38 1                 
SMALL
USER_CHARGES
@<TRIPOS>ATOM
1	CL26	13.368	-1.960	22.107	Cl	1	LIG1	0.000	
2	CL27	7.674	-3.771	23.889	Cl	1	LIG1	0.000	
3	 O23	10.051	3.674	23.348	O.2	1	LIG1	0.000	
4	 O24	5.365	3.614	23.260	O.2	1	LIG1	0.000	
5	 O25	8.414	1.483	20.735	O.2	1	LIG1	0.000	
6	 N28	6.032	0.020	17.371	N.2	1	LIG1	0.000	
7	 C29	9.670	2.494	23.370	C.2	1	LIG1	0.000	
8	 C30	6.507	3.795	23.092	C.2	1	LIG1	0.000	
9	 C31	8.059	0.458	21.278	C.2	1	LIG1	0.000	
10	 C32	6.739	-0.332	18.421	C.2	1	LIG1	0.000	
11	 C33	12.770	0.546	22.771	C.2	1	LIG1	0.000	
12	 C34	11.927	1.582	23.032	C.2	1	LIG1	0.000	
13	 C35	10.895	-0.898	22.338	C.2	1	LIG1	0.000	
14	 C36	2.657	1.899	20.255	C.2	1	LIG1	0.000	
15	 C37	3.366	1.524	21.372	C.2	1	LIG1	0.000	
16	 C38	12.264	-0.687	22.412	C.2	1	LIG1	0.000	
17	 C39	10.566	1.392	23.019	C.2	1	LIG1	0.000	
18	 C40	10.034	0.126	22.701	C.2	1	LIG1	0.000	
19	 C41	4.853	0.633	17.534	C.2	1	LIG1	0.000	
20	 C42	3.146	1.611	18.988	C.2	1	LIG1	0.000	
21	 C43	4.554	0.879	21.222	C.2	1	LIG1	0.000	
22	 C44	6.308	-0.072	19.719	C.2	1	LIG1	0.000	
23	 C45	4.344	0.954	18.812	C.2	1	LIG1	0.000	
24	 C46	5.069	0.594	19.944	C.2	1	LIG1	0.000	
25	 N47	6.898	4.417	21.984	N.pl3	1	LIG1	0.000	
26	 N48	7.094	-0.369	20.801	N.pl3	1	LIG1	0.000	
27	 N49	8.338	2.225	23.635	N.pl3	1	LIG1	0.000	
28	 C50	5.964	4.992	21.075	C.3	1	LIG1	0.000	
29	 C51	7.486	3.295	24.066	C.3	1	LIG1	0.000	
30	 C52	7.862	-2.095	23.900	C.3	1	LIG1	0.000	
31	 C53	6.974	-1.533	21.584	C.3	1	LIG1	0.000	
32	 C54	7.846	0.836	23.725	C.3	1	LIG1	0.000	
33	 C55	8.055	-1.437	22.603	C.3	1	LIG1	0.000	
34	 C56	8.540	-0.026	22.608	C.3	1	LIG1	0.000	
@<TRIPOS>BOND
1 6 19 ar
2 3 7 2
3 4 8 2
4 8 29 1
5 5 9 2
6 9 26 1
7 6 10 ar
8 11 12 ar
9 12 17 ar
10 13 16 ar
11 14 15 ar
12 15 21 ar
13 1 16 1
14 11 16 ar
15 7 17 1
16 13 18 ar
17 17 18 ar
18 19 23 ar
19 14 20 ar
20 21 24 ar
21 10 22 ar
22 22 24 ar
23 20 23 ar
24 23 24 ar
25 8 25 1
26 22 26 1
27 26 31 1
28 7 27 1
29 27 32 1
30 25 28 1
31 27 29 1
32 2 30 1
33 31 33 1
34 32 34 1
35 30 33 1
36 9 34 1
37 18 34 1
38 33 34 1
@<TRIPOS>SUBSTRUCTURE
1	LIG1	1	GROUP	1 C	LIG
