# created with PyMOL 3.1.3.1
@<TRIPOS>MOLECULE
predicted
27 31 1                 
SMALL
USER_CHARGES
@<TRIPOS>ATOM
1	 O19	-5.316	-3.293	-21.534	O.2	1	LIG1	0.000	
2	 O20	-8.239	0.097	-20.998	O.2	1	LIG1	0.000	
3	 O21	-10.970	-0.621	-25.463	O.2	1	LIG1	0.000	
4	 O22	-11.693	0.792	-23.663	O.2	1	LIG1	0.000	
5	 N23	-5.710	-0.455	-17.583	N.2	1	LIG1	0.000	
6	 C24	-6.268	-2.572	-21.720	C.2	1	LIG1	0.000	
7	 C25	-7.713	-0.925	-21.459	C.2	1	LIG1	0.000	
8	 C26	-6.336	-0.982	-18.606	C.2	1	LIG1	0.000	
9	 C27	-2.381	1.266	-20.550	C.2	1	LIG1	0.000	
10	 C28	-2.991	0.676	-21.617	C.2	1	LIG1	0.000	
11	 C29	-4.577	0.212	-17.797	C.2	1	LIG1	0.000	
12	 C30	-2.892	1.141	-19.292	C.2	1	LIG1	0.000	
13	 C31	-4.113	-0.052	-21.438	C.2	1	LIG1	0.000	
14	 C32	-5.835	-0.967	-19.887	C.2	1	LIG1	0.000	
15	 C33	-4.037	0.393	-19.073	C.2	1	LIG1	0.000	
16	 C34	-4.672	-0.198	-20.152	C.2	1	LIG1	0.000	
17	 N35	-6.554	-1.478	-20.977	N.pl3	1	LIG1	0.000	
18	 N36	-7.200	-2.734	-22.679	N.pl3	1	LIG1	0.000	
19	 N37	-10.012	-0.816	-23.174	N.3	1	LIG1	0.000	
20	 C38	-7.189	-3.784	-23.682	C.3	1	LIG1	0.000	
21	 C39	-8.520	-0.905	-23.775	C.3	1	LIG1	0.000	
22	 C40	-9.574	-2.163	-22.509	C.3	1	LIG1	0.000	
23	 C41	-12.519	-3.000	-23.818	C.3	1	LIG1	0.000	
24	 C42	-12.705	-2.333	-22.477	C.3	1	LIG1	0.000	
25	 C43	-8.166	-1.744	-22.587	C.3	1	LIG1	0.000	
26	 C44	-12.597	-1.555	-23.737	C.3	1	LIG1	0.000	
27	 S45	-11.287	-0.498	-24.064	S.O2	1	LIG1	0.000	
@<TRIPOS>BOND
1 5 11 ar
2 1 6 2
3 6 17 1
4 2 7 2
5 7 25 1
6 5 8 ar
7 9 10 ar
8 10 13 ar
9 11 15 ar
10 9 12 ar
11 13 16 ar
12 8 14 ar
13 14 16 ar
14 12 15 ar
15 15 16 ar
16 7 17 1
17 14 17 1
18 6 18 1
19 18 25 1
20 19 22 1
21 19 27 1
22 18 20 1
23 19 21 1
24 23 24 1
25 21 25 1
26 22 25 1
27 23 26 1
28 24 26 1
29 3 27 2
30 4 27 2
31 26 27 1
@<TRIPOS>SUBSTRUCTURE
1	LIG1	1	GROUP	1 C	LIG
