# created with PyMOL 3.1.3.1
@<TRIPOS>MOLECULE
predicted
33 37 1                 
SMALL
USER_CHARGES
@<TRIPOS>ATOM
1	CL27	-13.213	-3.064	-21.804	Cl	1	LIG1	0.000	
2	 O24	-10.620	2.514	-24.302	O.2	1	LIG1	0.000	
3	 O25	-5.803	2.272	-24.291	O.2	1	LIG1	0.000	
4	 O26	-8.572	0.738	-21.432	O.2	1	LIG1	0.000	
5	 N28	-6.140	-0.511	-17.938	N.2	1	LIG1	0.000	
6	 C29	-10.117	1.381	-24.163	C.2	1	LIG1	0.000	
7	 C30	-6.888	2.660	-24.071	C.2	1	LIG1	0.000	
8	 C31	-8.168	-0.302	-21.909	C.2	1	LIG1	0.000	
9	 C32	-6.821	-0.919	-18.984	C.2	1	LIG1	0.000	
10	 C33	-12.964	-0.662	-22.998	C.2	1	LIG1	0.000	
11	 C34	-12.250	0.362	-23.522	C.2	1	LIG1	0.000	
12	 C35	-10.909	-1.887	-22.524	C.2	1	LIG1	0.000	
13	 C36	-2.783	1.365	-20.829	C.2	1	LIG1	0.000	
14	 C37	-3.453	0.924	-21.943	C.2	1	LIG1	0.000	
15	 C38	-12.293	-1.790	-22.479	C.2	1	LIG1	0.000	
16	 C39	-10.873	0.281	-23.585	C.2	1	LIG1	0.000	
17	 C40	-10.202	-0.883	-23.152	C.2	1	LIG1	0.000	
18	 C41	-4.974	0.137	-18.101	C.2	1	LIG1	0.000	
19	 C42	-3.276	1.105	-19.563	C.2	1	LIG1	0.000	
20	 C43	-4.627	0.259	-21.796	C.2	1	LIG1	0.000	
21	 C44	-6.396	-0.679	-20.296	C.2	1	LIG1	0.000	
22	 C45	-4.465	0.428	-19.385	C.2	1	LIG1	0.000	
23	 C46	-5.161	0.005	-20.520	C.2	1	LIG1	0.000	
24	 N47	-7.171	3.348	-22.951	N.pl3	1	LIG1	0.000	
25	 N48	-7.167	-1.054	-21.378	N.pl3	1	LIG1	0.000	
26	 N49	-8.777	1.209	-24.434	N.pl3	1	LIG1	0.000	
27	 C50	-6.143	3.736	-22.049	C.3	1	LIG1	0.000	
28	 C51	-8.019	2.306	-24.992	C.3	1	LIG1	0.000	
29	 C52	-8.068	-3.105	-24.314	C.3	1	LIG1	0.000	
30	 C53	-7.009	-2.293	-22.090	C.3	1	LIG1	0.000	
31	 C54	-8.181	-0.138	-24.415	C.3	1	LIG1	0.000	
32	 C55	-8.125	-2.311	-23.085	C.3	1	LIG1	0.000	
33	 C56	-8.713	-0.925	-23.172	C.3	1	LIG1	0.000	
@<TRIPOS>BOND
1 5 18 ar
2 2 6 2
3 3 7 2
4 7 28 1
5 4 8 2
6 8 25 1
7 5 9 ar
8 10 11 ar
9 11 16 ar
10 12 15 ar
11 13 14 ar
12 14 20 ar
13 1 15 1
14 10 15 ar
15 6 16 1
16 12 17 ar
17 16 17 ar
18 18 22 ar
19 13 19 ar
20 20 23 ar
21 9 21 ar
22 21 23 ar
23 19 22 ar
24 22 23 ar
25 7 24 1
26 21 25 1
27 25 30 1
28 6 26 1
29 26 31 1
30 24 27 1
31 26 28 1
32 30 32 1
33 31 33 1
34 29 32 1
35 8 33 1
36 17 33 1
37 32 33 1
@<TRIPOS>SUBSTRUCTURE
1	LIG1	1	GROUP	1 C	LIG
