# created with PyMOL 3.1.3.1
@<TRIPOS>MOLECULE
predicted
38 43 1                 
SMALL
USER_CHARGES
@<TRIPOS>ATOM
1	CL37	-13.597	-3.930	-22.162	Cl	1	LIG1	0.000	
2	 O35	-10.669	1.786	-24.084	O.2	1	LIG1	0.000	
3	 O36	-8.867	-0.045	-21.157	O.2	1	LIG1	0.000	
4	 N38	-6.493	-1.101	-17.619	N.2	1	LIG1	0.000	
5	 O39	-5.581	5.917	-22.902	O.3	1	LIG1	0.000	
6	 C40	-10.177	0.660	-23.930	C.2	1	LIG1	0.000	
7	 C41	-8.441	-1.093	-21.606	C.2	1	LIG1	0.000	
8	 C42	-7.166	-1.551	-18.658	C.2	1	LIG1	0.000	
9	 C43	-13.143	-1.465	-23.142	C.2	1	LIG1	0.000	
10	 C44	-12.378	-0.393	-23.517	C.2	1	LIG1	0.000	
11	 C45	-11.169	-2.705	-22.554	C.2	1	LIG1	0.000	
12	 C46	-3.081	0.581	-20.562	C.2	1	LIG1	0.000	
13	 C47	-3.764	0.113	-21.658	C.2	1	LIG1	0.000	
14	 C48	-12.561	-2.612	-22.650	C.2	1	LIG1	0.000	
15	 C49	-11.011	-0.479	-23.486	C.2	1	LIG1	0.000	
16	 C50	-10.382	-1.659	-23.036	C.2	1	LIG1	0.000	
17	 C51	-5.314	-0.487	-17.793	C.2	1	LIG1	0.000	
18	 C52	-3.582	0.385	-19.285	C.2	1	LIG1	0.000	
19	 C53	-4.941	-0.529	-21.498	C.2	1	LIG1	0.000	
20	 C54	-6.714	-1.391	-19.975	C.2	1	LIG1	0.000	
21	 C55	-4.778	-0.269	-19.088	C.2	1	LIG1	0.000	
22	 C56	-5.474	-0.728	-20.210	C.2	1	LIG1	0.000	
23	 N57	-7.454	-1.820	-21.058	N.pl3	1	LIG1	0.000	
24	 N58	-8.804	0.477	-24.102	N.pl3	1	LIG1	0.000	
25	 C59	-7.972	1.586	-24.439	C.3	1	LIG1	0.000	
26	 C60	-8.075	-3.854	-24.038	C.3	1	LIG1	0.000	
27	 C61	-7.266	-3.051	-21.743	C.3	1	LIG1	0.000	
28	 C62	-8.982	4.759	-23.960	C.3	1	LIG1	0.000	
29	 C63	-4.627	2.916	-23.723	C.3	1	LIG1	0.000	
30	 C64	-6.932	5.968	-23.301	C.3	1	LIG1	0.000	
31	 C65	-5.166	4.725	-22.098	C.3	1	LIG1	0.000	
32	 C66	-8.247	-0.844	-24.068	C.3	1	LIG1	0.000	
33	 C67	-7.654	2.348	-23.176	C.3	1	LIG1	0.000	
34	 C68	-8.326	-3.078	-22.829	C.3	1	LIG1	0.000	
35	 C69	-7.514	4.682	-23.864	C.3	1	LIG1	0.000	
36	 C70	-5.611	3.492	-22.727	C.3	1	LIG1	0.000	
37	 C71	-8.886	-1.689	-22.920	C.3	1	LIG1	0.000	
38	 N72	-6.958	3.555	-23.239	N.3	1	LIG1	0.000	
@<TRIPOS>BOND
1 4 17 ar
2 5 31 1
3 2 6 2
4 3 7 2
5 7 23 1
6 4 8 ar
7 9 10 ar
8 10 15 ar
9 11 14 ar
10 12 13 ar
11 13 19 ar
12 1 14 1
13 9 14 ar
14 6 15 1
15 11 16 ar
16 15 16 ar
17 17 21 ar
18 12 18 ar
19 19 22 ar
20 8 20 ar
21 20 22 ar
22 18 21 ar
23 21 22 ar
24 20 23 1
25 23 27 1
26 6 24 1
27 24 32 1
28 24 25 1
29 27 34 1
30 28 35 1
31 5 30 1
32 31 36 1
33 32 37 1
34 25 33 1
35 26 34 1
36 30 35 1
37 35 38 1
38 29 36 1
39 36 38 1
40 7 37 1
41 16 37 1
42 34 37 1
43 33 38 1
@<TRIPOS>SUBSTRUCTURE
1	LIG1	1	GROUP	1 C	LIG
