# created with PyMOL 3.1.3.1
@<TRIPOS>MOLECULE
predicted
41 46 1                 
SMALL
USER_CHARGES
@<TRIPOS>ATOM
1	CL33	-12.922	-2.490	-22.045	Cl	1	LIG1	0.000	
2	 O30	-1.628	4.075	-22.346	O.2	1	LIG1	0.000	
3	 O31	-4.131	-2.376	-25.184	O.2	1	LIG1	0.000	
4	 O32	-8.309	-0.097	-21.572	O.2	1	LIG1	0.000	
5	 N34	-6.163	-0.397	-17.737	N.2	1	LIG1	0.000	
6	 O35	1.813	3.729	-22.132	O.3	1	LIG1	0.000	
7	 C36	-0.546	3.469	-22.433	C.2	1	LIG1	0.000	
8	 C37	-4.809	-1.523	-25.720	C.2	1	LIG1	0.000	
9	 C38	-7.624	-1.051	-21.892	C.2	1	LIG1	0.000	
10	 C39	-6.638	-0.979	-18.829	C.2	1	LIG1	0.000	
11	 C40	-11.728	-3.060	-24.323	C.2	1	LIG1	0.000	
12	 C41	-3.686	1.714	-24.716	C.2	1	LIG1	0.000	
13	 C42	-2.352	-0.279	-24.919	C.2	1	LIG1	0.000	
14	 C43	-2.661	2.369	-24.085	C.2	1	LIG1	0.000	
15	 C44	-1.294	0.360	-24.280	C.2	1	LIG1	0.000	
16	 C45	-10.657	-3.148	-25.181	C.2	1	LIG1	0.000	
17	 C46	-10.311	-2.186	-22.650	C.2	1	LIG1	0.000	
18	 C47	-2.740	1.628	-20.324	C.2	1	LIG1	0.000	
19	 C48	-3.222	1.038	-21.457	C.2	1	LIG1	0.000	
20	 C49	-11.540	-2.572	-23.071	C.2	1	LIG1	0.000	
21	 C50	-3.528	0.411	-25.104	C.2	1	LIG1	0.000	
22	 C51	-1.431	1.692	-23.830	C.2	1	LIG1	0.000	
23	 C52	-9.381	-2.741	-24.779	C.2	1	LIG1	0.000	
24	 C53	-9.226	-2.227	-23.504	C.2	1	LIG1	0.000	
25	 C54	-5.090	0.363	-17.801	C.2	1	LIG1	0.000	
26	 C55	-3.347	1.415	-19.118	C.2	1	LIG1	0.000	
27	 C56	-4.310	0.244	-21.427	C.2	1	LIG1	0.000	
28	 C57	-6.057	-0.806	-20.073	C.2	1	LIG1	0.000	
29	 C58	-4.447	0.607	-19.032	C.2	1	LIG1	0.000	
30	 C59	-4.924	0.018	-20.194	C.2	1	LIG1	0.000	
31	 N60	-4.589	-0.208	-25.705	N.pl3	1	LIG1	0.000	
32	 N61	-6.524	-1.478	-21.193	N.pl3	1	LIG1	0.000	
33	 N62	-0.375	2.340	-23.170	N.pl3	1	LIG1	0.000	
34	 C63	0.577	3.981	-21.531	C.3	1	LIG1	0.000	
35	 C64	1.946	2.317	-22.343	C.3	1	LIG1	0.000	
36	 C65	0.918	1.827	-23.352	C.3	1	LIG1	0.000	
37	 C66	-6.074	-1.926	-26.324	C.3	1	LIG1	0.000	
38	 C67	-8.232	-2.808	-25.774	C.3	1	LIG1	0.000	
39	 C68	-7.056	-1.438	-24.253	C.3	1	LIG1	0.000	
40	 C69	-7.864	-1.875	-23.075	C.3	1	LIG1	0.000	
41	 N70	-6.980	-2.372	-25.264	N.3	1	LIG1	0.000	
@<TRIPOS>BOND
1 3 8 2
2 5 25 ar
3 6 34 1
4 2 7 2
5 8 31 1
6 8 37 1
7 4 9 2
8 9 32 1
9 5 10 ar
10 11 20 ar
11 12 14 ar
12 14 22 ar
13 13 15 ar
14 11 16 ar
15 17 24 ar
16 18 19 ar
17 19 27 ar
18 1 20 1
19 17 20 ar
20 12 21 ar
21 13 21 ar
22 15 22 ar
23 22 33 1
24 16 23 ar
25 23 24 ar
26 24 40 1
27 25 29 ar
28 18 26 ar
29 27 30 ar
30 10 28 ar
31 28 30 ar
32 26 29 ar
33 29 30 ar
34 21 31 1
35 28 32 1
36 7 33 1
37 33 36 1
38 7 34 1
39 6 35 1
40 35 36 1
41 37 41 1
42 23 38 1
43 9 40 1
44 39 40 1
45 38 41 1
46 39 41 1
@<TRIPOS>SUBSTRUCTURE
1	LIG1	1	GROUP	1 C	LIG
