# created with PyMOL 3.1.3.1
@<TRIPOS>MOLECULE
predicted
36 40 1                 
SMALL
USER_CHARGES
@<TRIPOS>ATOM
1	 O29	8.417	1.401	20.750	O.2	1	LIG1	0.000	
2	 O30	5.990	-5.719	19.793	O.2	1	LIG1	0.000	
3	 N32	6.032	0.368	17.217	N.2	1	LIG1	0.000	
4	 C33	7.829	0.447	21.272	C.2	1	LIG1	0.000	
5	 C34	6.191	-4.756	20.446	C.2	1	LIG1	0.000	
6	 C35	6.541	0.031	18.395	C.2	1	LIG1	0.000	
7	 C36	12.480	-1.093	24.416	C.2	1	LIG1	0.000	
8	 C37	13.097	-1.595	23.291	C.2	1	LIG1	0.000	
9	 C38	7.169	-1.365	24.145	C.2	1	LIG1	0.000	
10	 C39	7.633	-2.536	22.113	C.2	1	LIG1	0.000	
11	 C40	11.269	-0.439	24.275	C.2	1	LIG1	0.000	
12	 C41	11.293	-0.789	21.935	C.2	1	LIG1	0.000	
13	 C42	6.524	-2.497	24.661	C.2	1	LIG1	0.000	
14	 C43	2.359	2.513	19.417	C.2	1	LIG1	0.000	
15	 C44	2.879	2.181	20.644	C.2	1	LIG1	0.000	
16	 C45	12.511	-1.442	22.059	C.2	1	LIG1	0.000	
17	 C46	7.688	-1.376	22.868	C.2	1	LIG1	0.000	
18	 C47	6.946	-3.661	22.554	C.2	1	LIG1	0.000	
19	 C48	10.681	-0.256	23.043	C.2	1	LIG1	0.000	
20	 C49	6.440	-3.672	23.893	C.2	1	LIG1	0.000	
21	 C50	4.908	1.017	17.171	C.2	1	LIG1	0.000	
22	 C51	3.017	2.138	18.263	C.2	1	LIG1	0.000	
23	 C52	4.059	1.485	20.755	C.2	1	LIG1	0.000	
24	 C53	5.947	0.372	19.625	C.2	1	LIG1	0.000	
25	 C54	4.205	1.425	18.337	C.2	1	LIG1	0.000	
26	 C55	4.728	1.078	19.582	C.2	1	LIG1	0.000	
27	 N56	8.303	-0.185	22.342	N.pl3	1	LIG1	0.000	
28	 N57	6.723	-4.803	21.731	N.pl3	1	LIG1	0.000	
29	 C58	6.488	-0.057	20.877	C.3	1	LIG1	0.000	
30	 C59	9.368	0.473	22.991	C.3	1	LIG1	0.000	
31	 C60	6.363	-3.252	18.428	C.3	1	LIG1	0.000	
32	 C61	5.823	-3.450	19.825	C.3	1	LIG1	0.000	
33	 C62	5.900	-4.910	24.455	C.3	1	LIG1	0.000	
34	 C63	6.906	-6.063	22.412	C.3	1	LIG1	0.000	
35	 C64	5.910	-6.093	23.568	C.3	1	LIG1	0.000	
36	BR31	13.318	-2.082	20.531	Br	1	LIG1	0.000	
@<TRIPOS>BOND
1 3 21 ar
2 1 4 2
3 4 29 1
4 2 5 2
5 5 28 1
6 3 6 ar
7 7 8 ar
8 8 16 ar
9 9 17 ar
10 10 18 ar
11 7 11 ar
12 9 13 ar
13 14 15 ar
14 15 23 ar
15 12 16 ar
16 16 36 1
17 10 17 ar
18 17 27 1
19 11 19 ar
20 12 19 ar
21 13 20 ar
22 18 20 ar
23 21 25 ar
24 14 22 ar
25 23 26 ar
26 6 24 ar
27 24 26 ar
28 22 25 ar
29 25 26 ar
30 4 27 1
31 27 30 1
32 18 28 1
33 28 34 1
34 24 29 1
35 19 30 1
36 31 32 1
37 5 32 1
38 20 33 1
39 34 35 1
40 33 35 1
@<TRIPOS>SUBSTRUCTURE
1	LIG1	1	GROUP	1 C	LIG
