# created with PyMOL 3.1.3.1
@<TRIPOS>MOLECULE
predicted
38 43 1                 
SMALL
USER_CHARGES
@<TRIPOS>ATOM
1	 O29	-11.473	1.256	-23.380	O.2	1	LIG1	0.000	
2	 O30	-9.217	2.810	-24.749	O.2	1	LIG1	0.000	
3	 O31	-9.382	-0.369	-20.836	O.2	1	LIG1	0.000	
4	 N32	-6.745	-1.037	-17.490	N.2	1	LIG1	0.000	
5	 N33	-8.657	6.986	-24.893	N.2	1	LIG1	0.000	
6	 C34	-10.825	0.218	-23.386	C.2	1	LIG1	0.000	
7	 C35	-8.988	2.570	-23.575	C.2	1	LIG1	0.000	
8	 C36	-8.830	-1.311	-21.358	C.2	1	LIG1	0.000	
9	 C37	-7.500	6.836	-24.250	C.2	1	LIG1	0.000	
10	 C38	-7.386	-1.543	-18.518	C.2	1	LIG1	0.000	
11	 C39	-13.501	-2.384	-23.069	C.2	1	LIG1	0.000	
12	 C40	-12.786	-3.452	-22.675	C.2	1	LIG1	0.000	
13	 C41	-12.877	-1.170	-23.297	C.2	1	LIG1	0.000	
14	 C42	-11.363	-3.335	-22.474	C.2	1	LIG1	0.000	
15	 C43	-3.609	1.017	-20.452	C.2	1	LIG1	0.000	
16	 C44	-4.264	0.494	-21.543	C.2	1	LIG1	0.000	
17	 C45	-7.697	5.882	-23.274	C.2	1	LIG1	0.000	
18	 C46	-11.507	-1.049	-23.174	C.2	1	LIG1	0.000	
19	 C47	-10.714	-2.126	-22.804	C.2	1	LIG1	0.000	
20	 C48	-5.649	-0.314	-17.701	C.2	1	LIG1	0.000	
21	 C49	-4.063	0.750	-19.184	C.2	1	LIG1	0.000	
22	 C50	-5.361	-0.283	-21.377	C.2	1	LIG1	0.000	
23	 C51	-6.983	-1.354	-19.822	C.2	1	LIG1	0.000	
24	 C52	-9.037	5.528	-23.345	C.2	1	LIG1	0.000	
25	 C53	-5.175	-0.029	-18.989	C.2	1	LIG1	0.000	
26	 C54	-5.846	-0.551	-20.085	C.2	1	LIG1	0.000	
27	 N55	-9.226	3.314	-22.477	N.pl3	1	LIG1	0.000	
28	 N56	-7.706	-1.852	-20.887	N.pl3	1	LIG1	0.000	
29	 N57	-9.384	0.245	-23.466	N.pl3	1	LIG1	0.000	
30	 N58	-9.595	6.185	-24.312	N.2	1	LIG1	0.000	
31	 C59	-8.502	1.292	-23.237	C.3	1	LIG1	0.000	
32	 C60	-9.754	4.591	-22.519	C.3	1	LIG1	0.000	
33	 C61	-10.952	6.051	-24.729	C.3	1	LIG1	0.000	
34	 C62	-8.130	-3.808	-23.963	C.3	1	LIG1	0.000	
35	 C63	-7.372	-3.022	-21.651	C.3	1	LIG1	0.000	
36	 C64	-8.720	-0.944	-23.731	C.3	1	LIG1	0.000	
37	 C65	-8.454	-3.188	-22.670	C.3	1	LIG1	0.000	
38	 C66	-9.225	-1.927	-22.662	C.3	1	LIG1	0.000	
@<TRIPOS>BOND
1 4 20 ar
2 5 30 ar
3 1 6 2
4 6 18 1
5 2 7 2
6 7 27 1
7 3 8 2
8 8 38 1
9 5 9 ar
10 4 10 ar
11 11 12 ar
12 12 14 ar
13 11 13 ar
14 14 19 ar
15 15 16 ar
16 16 22 ar
17 9 17 ar
18 13 18 ar
19 18 19 ar
20 20 25 ar
21 15 21 ar
22 22 26 ar
23 10 23 ar
24 23 26 ar
25 17 24 ar
26 24 30 ar
27 21 25 ar
28 25 26 ar
29 27 32 1
30 8 28 1
31 23 28 1
32 6 29 1
33 29 31 1
34 30 33 1
35 7 31 1
36 24 32 1
37 34 37 1
38 28 35 1
39 29 36 1
40 35 37 1
41 37 38 1
42 19 38 1
43 36 38 1
@<TRIPOS>SUBSTRUCTURE
1	LIG1	1	GROUP	1 C	LIG
