# created with PyMOL 3.1.3.1
@<TRIPOS>MOLECULE
predicted
32 36 1                 
SMALL
USER_CHARGES
@<TRIPOS>ATOM
1	 O27	10.396	3.316	23.709	O.2	1	LIG1	0.000	
2	 O28	8.608	1.272	20.920	O.2	1	LIG1	0.000	
3	 N30	6.105	-0.011	17.562	N.2	1	LIG1	0.000	
4	 C31	9.965	2.153	23.622	C.2	1	LIG1	0.000	
5	 C32	8.237	0.239	21.452	C.2	1	LIG1	0.000	
6	 C33	6.839	-0.377	18.599	C.2	1	LIG1	0.000	
7	 C34	13.028	0.144	22.905	C.2	1	LIG1	0.000	
8	 C35	12.218	1.194	23.235	C.2	1	LIG1	0.000	
9	 C36	11.103	-1.225	22.418	C.2	1	LIG1	0.000	
10	 C37	2.695	1.649	20.538	C.2	1	LIG1	0.000	
11	 C38	3.426	1.254	21.633	C.2	1	LIG1	0.000	
12	 C39	12.490	-1.054	22.500	C.2	1	LIG1	0.000	
13	 C40	10.840	1.046	23.218	C.2	1	LIG1	0.000	
14	 C41	10.259	-0.188	22.838	C.2	1	LIG1	0.000	
15	 C42	4.912	0.562	17.746	C.2	1	LIG1	0.000	
16	 C43	3.184	1.419	19.257	C.2	1	LIG1	0.000	
17	 C44	4.633	0.645	21.457	C.2	1	LIG1	0.000	
18	 C45	6.411	-0.204	19.918	C.2	1	LIG1	0.000	
19	 C46	4.408	0.808	19.045	C.2	1	LIG1	0.000	
20	 C47	5.156	0.416	20.166	C.2	1	LIG1	0.000	
21	 N48	7.220	-0.549	20.986	N.pl3	1	LIG1	0.000	
22	 N49	8.596	1.910	23.827	N.pl3	1	LIG1	0.000	
23	 C50	7.709	2.977	24.190	C.3	1	LIG1	0.000	
24	 C51	8.108	-2.443	24.004	C.3	1	LIG1	0.000	
25	 C52	7.094	-1.745	21.755	C.3	1	LIG1	0.000	
26	 C53	8.100	0.542	23.901	C.3	1	LIG1	0.000	
27	 C54	5.380	4.727	21.882	C.3	1	LIG1	0.000	
28	 C55	7.235	3.607	22.868	C.3	1	LIG1	0.000	
29	 C56	8.235	-1.702	22.745	C.3	1	LIG1	0.000	
30	 C57	8.754	-0.300	22.767	C.3	1	LIG1	0.000	
31	 N58	6.125	4.465	23.045	N.3	1	LIG1	0.000	
32	 F29	13.326	-2.043	22.180	 F	1	LIG1	0.000	
@<TRIPOS>BOND
1 3 15 ar
2 1 4 2
3 2 5 2
4 5 21 1
5 3 6 ar
6 7 8 ar
7 8 13 ar
8 9 12 ar
9 10 11 ar
10 11 17 ar
11 7 12 ar
12 12 32 1
13 4 13 1
14 9 14 ar
15 13 14 ar
16 15 19 ar
17 10 16 ar
18 17 20 ar
19 6 18 ar
20 18 20 ar
21 16 19 ar
22 19 20 ar
23 18 21 1
24 21 25 1
25 4 22 1
26 22 26 1
27 22 23 1
28 25 29 1
29 26 30 1
30 27 31 1
31 23 28 1
32 24 29 1
33 5 30 1
34 14 30 1
35 29 30 1
36 28 31 1
@<TRIPOS>SUBSTRUCTURE
1	LIG1	1	GROUP	1 C	LIG
