# created with PyMOL 3.1.3.1
@<TRIPOS>MOLECULE
predicted
40 45 1                 
SMALL
USER_CHARGES
@<TRIPOS>ATOM
1	CL31	-13.191	-2.976	-21.803	Cl	1	LIG1	0.000	
2	 O28	-10.674	2.514	-24.640	O.2	1	LIG1	0.000	
3	 O29	-5.955	2.917	-24.522	O.2	1	LIG1	0.000	
4	 O30	-8.511	0.866	-21.596	O.2	1	LIG1	0.000	
5	 N32	-6.772	-6.073	-27.638	N.2	1	LIG1	0.000	
6	 N33	-6.084	-0.539	-18.027	N.2	1	LIG1	0.000	
7	 S34	-8.810	-5.244	-26.574	S.2	1	LIG1	0.000	
8	 C35	-10.126	1.404	-24.431	C.2	1	LIG1	0.000	
9	 C36	-7.114	2.971	-24.359	C.2	1	LIG1	0.000	
10	 C37	-8.123	-0.200	-22.048	C.2	1	LIG1	0.000	
11	 C38	-8.091	-6.097	-27.773	C.2	1	LIG1	0.000	
12	 C39	-6.769	-0.942	-19.096	C.2	1	LIG1	0.000	
13	 C40	-6.383	-5.331	-26.555	C.2	1	LIG1	0.000	
14	 C41	-7.397	-4.748	-25.843	C.2	1	LIG1	0.000	
15	 C42	-12.942	-0.623	-23.071	C.2	1	LIG1	0.000	
16	 C43	-12.246	0.386	-23.678	C.2	1	LIG1	0.000	
17	 C44	-10.866	-1.802	-22.610	C.2	1	LIG1	0.000	
18	 C45	-2.898	1.707	-20.878	C.2	1	LIG1	0.000	
19	 C46	-3.581	1.304	-22.020	C.2	1	LIG1	0.000	
20	 C47	-12.249	-1.725	-22.529	C.2	1	LIG1	0.000	
21	 C48	-10.862	0.319	-23.778	C.2	1	LIG1	0.000	
22	 C49	-10.172	-0.817	-23.295	C.2	1	LIG1	0.000	
23	 C50	-4.961	0.174	-18.185	C.2	1	LIG1	0.000	
24	 C51	-3.345	1.331	-19.601	C.2	1	LIG1	0.000	
25	 C52	-4.711	0.550	-21.895	C.2	1	LIG1	0.000	
26	 C53	-6.370	-0.604	-20.412	C.2	1	LIG1	0.000	
27	 C54	-4.487	0.566	-19.456	C.2	1	LIG1	0.000	
28	 C55	-5.182	0.172	-20.617	C.2	1	LIG1	0.000	
29	 N56	-7.634	3.564	-23.273	N.pl3	1	LIG1	0.000	
30	 N57	-7.273	-3.957	-24.739	N.pl3	1	LIG1	0.000	
31	 N58	-7.145	-0.976	-21.503	N.pl3	1	LIG1	0.000	
32	 N59	-8.781	1.241	-24.698	N.pl3	1	LIG1	0.000	
33	 C60	-4.960	-5.116	-26.206	C.3	1	LIG1	0.000	
34	 C61	-6.806	4.243	-22.319	C.3	1	LIG1	0.000	
35	 C62	-8.059	2.311	-25.344	C.3	1	LIG1	0.000	
36	 C63	-8.308	-3.040	-24.361	C.3	1	LIG1	0.000	
37	 C64	-7.036	-2.229	-22.181	C.3	1	LIG1	0.000	
38	 C65	-8.150	-0.041	-24.570	C.3	1	LIG1	0.000	
39	 C66	-8.045	-2.213	-23.243	C.3	1	LIG1	0.000	
40	 C67	-8.660	-0.847	-23.318	C.3	1	LIG1	0.000	
@<TRIPOS>BOND
1 5 13 ar
2 6 23 ar
3 7 11 ar
4 2 8 2
5 3 9 2
6 9 35 1
7 4 10 2
8 10 31 1
9 5 11 ar
10 6 12 ar
11 13 33 1
12 7 14 ar
13 13 14 ar
14 15 16 ar
15 16 21 ar
16 17 20 ar
17 18 19 ar
18 19 25 ar
19 1 20 1
20 15 20 ar
21 8 21 1
22 17 22 ar
23 21 22 ar
24 23 27 ar
25 18 24 ar
26 25 28 ar
27 12 26 ar
28 26 28 ar
29 24 27 ar
30 27 28 ar
31 9 29 1
32 14 30 1
33 26 31 1
34 31 37 1
35 8 32 1
36 32 38 1
37 29 34 1
38 32 35 1
39 30 36 1
40 37 39 1
41 38 40 1
42 36 39 1
43 10 40 1
44 22 40 1
45 39 40 1
@<TRIPOS>SUBSTRUCTURE
1	LIG1	1	GROUP	1 C	LIG
