# created with PyMOL 3.1.3.1
@<TRIPOS>MOLECULE
predicted
26 29 1                 
SMALL
USER_CHARGES
@<TRIPOS>ATOM
1	 O25	-8.392	0.382	-21.512	O.2	1	LIG1	0.000	
2	 N26	-6.280	-0.555	-17.869	N.2	1	LIG1	0.000	
3	 C27	-8.035	-0.629	-22.074	C.2	1	LIG1	0.000	
4	 C28	-6.880	-1.139	-18.919	C.2	1	LIG1	0.000	
5	 C29	-13.088	-2.940	-23.029	C.2	1	LIG1	0.000	
6	 C30	-12.184	-2.330	-22.194	C.2	1	LIG1	0.000	
7	 C31	-13.129	-2.632	-24.381	C.2	1	LIG1	0.000	
8	 C32	-11.313	-1.386	-22.709	C.2	1	LIG1	0.000	
9	 C33	-12.233	-1.677	-24.871	C.2	1	LIG1	0.000	
10	 C34	-3.009	1.345	-20.742	C.2	1	LIG1	0.000	
11	 C35	-3.609	0.771	-21.826	C.2	1	LIG1	0.000	
12	 C36	-11.307	-1.048	-24.042	C.2	1	LIG1	0.000	
13	 C37	-5.207	0.147	-18.014	C.2	1	LIG1	0.000	
14	 C38	-3.523	1.157	-19.477	C.2	1	LIG1	0.000	
15	 C39	-4.733	0.023	-21.697	C.2	1	LIG1	0.000	
16	 C40	-6.425	-0.990	-20.213	C.2	1	LIG1	0.000	
17	 C41	-4.650	0.380	-19.286	C.2	1	LIG1	0.000	
18	 C42	-5.265	-0.211	-20.430	C.2	1	LIG1	0.000	
19	 N43	-8.364	-0.834	-23.386	N.pl3	1	LIG1	0.000	
20	 C44	-7.187	-1.656	-21.332	C.3	1	LIG1	0.000	
21	 C45	-7.993	-2.033	-24.147	C.3	1	LIG1	0.000	
22	 C46	-7.003	-1.636	-25.226	C.3	1	LIG1	0.000	
23	 C47	-7.650	-0.481	-26.124	C.3	1	LIG1	0.000	
24	 C48	-10.390	-0.009	-24.656	C.3	1	LIG1	0.000	
25	 C49	-8.077	0.740	-25.195	C.3	1	LIG1	0.000	
26	 C50	-9.039	0.240	-24.139	C.3	1	LIG1	0.000	
@<TRIPOS>BOND
1 1 3 2
2 2 13 ar
3 3 19 1
4 3 20 1
5 2 4 ar
6 5 7 ar
7 5 6 ar
8 7 9 ar
9 6 8 ar
10 10 11 ar
11 11 15 ar
12 8 12 ar
13 9 12 ar
14 13 17 ar
15 10 14 ar
16 15 18 ar
17 4 16 ar
18 16 18 ar
19 14 17 ar
20 17 18 ar
21 19 21 1
22 19 26 1
23 16 20 1
24 21 22 1
25 22 23 1
26 23 25 1
27 12 24 1
28 25 26 1
29 24 26 1
@<TRIPOS>SUBSTRUCTURE
1	LIG1	1	GROUP	1 C	LIG
