# created with PyMOL 3.1.3.1
@<TRIPOS>MOLECULE
predicted
24 27 1                 
SMALL
USER_CHARGES
@<TRIPOS>ATOM
1	CL19	12.606	-2.954	24.540	Cl	1	LIG1	0.000	
2	 O18	8.414	1.355	20.545	O.2	1	LIG1	0.000	
3	 N20	6.067	0.308	17.285	N.2	1	LIG1	0.000	
4	 C21	8.246	0.337	21.173	C.2	1	LIG1	0.000	
5	 C22	6.745	-0.220	18.302	C.2	1	LIG1	0.000	
6	 C23	13.576	0.423	22.882	C.2	1	LIG1	0.000	
7	 C24	13.657	-0.805	23.518	C.2	1	LIG1	0.000	
8	 C25	12.379	1.028	22.580	C.2	1	LIG1	0.000	
9	 C26	2.877	2.149	20.281	C.2	1	LIG1	0.000	
10	 C27	3.553	1.652	21.349	C.2	1	LIG1	0.000	
11	 C28	12.506	-1.457	23.759	C.2	1	LIG1	0.000	
12	 C29	11.260	0.367	22.862	C.2	1	LIG1	0.000	
13	 C30	11.267	-0.932	23.431	C.2	1	LIG1	0.000	
14	 C31	4.966	0.967	17.479	C.2	1	LIG1	0.000	
15	 C32	3.325	1.941	18.999	C.2	1	LIG1	0.000	
16	 C33	4.706	0.942	21.176	C.2	1	LIG1	0.000	
17	 C34	6.355	-0.047	19.608	C.2	1	LIG1	0.000	
18	 C35	4.482	1.216	18.780	C.2	1	LIG1	0.000	
19	 C36	5.190	0.702	19.885	C.2	1	LIG1	0.000	
20	 N37	8.959	0.124	22.291	N.pl3	1	LIG1	0.000	
21	 C38	7.191	-0.632	20.712	C.3	1	LIG1	0.000	
22	 C39	9.966	1.057	22.602	C.3	1	LIG1	0.000	
23	 C40	9.990	-1.683	23.552	C.3	1	LIG1	0.000	
24	 C41	8.731	-1.010	23.157	C.3	1	LIG1	0.000	
@<TRIPOS>BOND
1 2 4 2
2 3 14 ar
3 4 20 1
4 4 21 1
5 3 5 ar
6 6 8 ar
7 6 7 ar
8 8 12 ar
9 9 10 ar
10 10 16 ar
11 1 11 1
12 7 11 ar
13 12 22 1
14 11 13 ar
15 12 13 ar
16 14 18 ar
17 9 15 ar
18 16 19 ar
19 5 17 ar
20 17 19 ar
21 15 18 ar
22 18 19 ar
23 20 22 1
24 20 24 1
25 17 21 1
26 13 23 1
27 23 24 1
@<TRIPOS>SUBSTRUCTURE
1	LIG1	1	GROUP	1 C	LIG
