# created with PyMOL 3.1.3.1
@<TRIPOS>MOLECULE
predicted
31 35 1                 
SMALL
USER_CHARGES
@<TRIPOS>ATOM
1	 N20	-7.552	3.348	-22.688	N.3	1	LIG1	0.000	
2	 O21	-10.836	2.433	-24.214	O.2	1	LIG1	0.000	
3	 O22	-8.670	0.674	-21.370	O.2	1	LIG1	0.000	
4	 C24	-7.109	2.679	-23.848	C.3	1	LIG1	0.000	
5	 N25	-6.208	-0.553	-17.917	N.2	1	LIG1	0.000	
6	 C26	-10.312	1.312	-24.062	C.2	1	LIG1	0.000	
7	 C27	-8.296	-0.377	-21.856	C.2	1	LIG1	0.000	
8	 C28	-6.912	-0.976	-18.951	C.2	1	LIG1	0.000	
9	 C29	-13.140	-0.801	-22.922	C.2	1	LIG1	0.000	
10	 C30	-12.440	0.244	-23.429	C.2	1	LIG1	0.000	
11	 C31	-11.081	-2.013	-22.482	C.2	1	LIG1	0.000	
12	 C32	-2.945	1.408	-20.910	C.2	1	LIG1	0.000	
13	 C33	-3.651	0.958	-22.012	C.2	1	LIG1	0.000	
14	 C34	-12.479	-1.933	-22.440	C.2	1	LIG1	0.000	
15	 C35	-11.053	0.177	-23.500	C.2	1	LIG1	0.000	
16	 C36	-10.363	-0.977	-23.089	C.2	1	LIG1	0.000	
17	 C37	-5.048	0.125	-18.111	C.2	1	LIG1	0.000	
18	 C38	-3.400	1.140	-19.622	C.2	1	LIG1	0.000	
19	 C39	-4.805	0.256	-21.831	C.2	1	LIG1	0.000	
20	 C40	-6.497	-0.747	-20.272	C.2	1	LIG1	0.000	
21	 C41	-4.563	0.427	-19.407	C.2	1	LIG1	0.000	
22	 C42	-5.290	-0.017	-20.532	C.2	1	LIG1	0.000	
23	 N43	-7.293	-1.131	-21.342	N.pl3	1	LIG1	0.000	
24	 N44	-8.950	1.175	-24.324	N.pl3	1	LIG1	0.000	
25	 C45	-8.185	2.278	-24.861	C.3	1	LIG1	0.000	
26	 C46	-8.215	-3.141	-24.295	C.3	1	LIG1	0.000	
27	 C47	-7.159	-2.365	-22.044	C.3	1	LIG1	0.000	
28	 C48	-8.345	-0.156	-24.322	C.3	1	LIG1	0.000	
29	 C49	-8.253	-2.365	-23.072	C.3	1	LIG1	0.000	
30	 C50	-8.858	-0.996	-23.127	C.3	1	LIG1	0.000	
31	 F23	-13.202	-2.945	-21.933	 F	1	LIG1	0.000	
@<TRIPOS>BOND
1 1 4 1
2 5 17 ar
3 2 6 2
4 6 15 1
5 3 7 2
6 7 30 1
7 5 8 ar
8 9 14 ar
9 9 10 ar
10 11 16 ar
11 12 13 ar
12 13 19 ar
13 11 14 ar
14 14 31 1
15 10 15 ar
16 15 16 ar
17 17 21 ar
18 12 18 ar
19 19 22 ar
20 8 20 ar
21 20 22 ar
22 18 21 ar
23 21 22 ar
24 7 23 1
25 20 23 1
26 6 24 1
27 24 25 1
28 4 25 1
29 26 29 1
30 23 27 1
31 24 28 1
32 27 29 1
33 29 30 1
34 16 30 1
35 28 30 1
@<TRIPOS>SUBSTRUCTURE
1	LIG1	1	GROUP	1 C	LIG
