# created with PyMOL 3.1.3.1
@<TRIPOS>MOLECULE
predicted
36 41 1                 
SMALL
USER_CHARGES
@<TRIPOS>ATOM
1	CL33	-13.340	-2.885	-21.717	Cl	1	LIG1	0.000	
2	 O30	-5.656	1.863	-24.941	O.2	1	LIG1	0.000	
3	 O31	-8.570	0.679	-21.612	O.2	1	LIG1	0.000	
4	 N34	-6.216	-0.492	-17.957	N.2	1	LIG1	0.000	
5	 C35	-6.746	2.340	-24.753	C.2	1	LIG1	0.000	
6	 C36	-8.189	-0.412	-22.037	C.2	1	LIG1	0.000	
7	 C37	-6.875	-0.934	-19.026	C.2	1	LIG1	0.000	
8	 C38	-12.984	-0.773	-23.313	C.2	1	LIG1	0.000	
9	 C39	-12.241	0.087	-24.049	C.2	1	LIG1	0.000	
10	 C40	-10.953	-1.862	-22.565	C.2	1	LIG1	0.000	
11	 C41	-2.921	1.489	-20.785	C.2	1	LIG1	0.000	
12	 C42	-3.570	1.034	-21.901	C.2	1	LIG1	0.000	
13	 C43	-12.339	-1.764	-22.571	C.2	1	LIG1	0.000	
14	 C44	-10.858	0.001	-24.047	C.2	1	LIG1	0.000	
15	 C45	-10.191	-1.031	-23.355	C.2	1	LIG1	0.000	
16	 C46	-5.088	0.185	-18.103	C.2	1	LIG1	0.000	
17	 C47	-3.413	1.207	-19.526	C.2	1	LIG1	0.000	
18	 C48	-4.717	0.333	-21.782	C.2	1	LIG1	0.000	
19	 C49	-6.455	-0.684	-20.336	C.2	1	LIG1	0.000	
20	 C50	-4.575	0.487	-19.379	C.2	1	LIG1	0.000	
21	 C51	-5.253	0.044	-20.516	C.2	1	LIG1	0.000	
22	 N52	-7.201	-1.132	-21.451	N.pl3	1	LIG1	0.000	
23	 N53	-7.011	3.183	-23.758	N.pl3	1	LIG1	0.000	
24	 C54	-7.050	-2.422	-22.087	C.3	1	LIG1	0.000	
25	 C55	-8.135	-2.451	-23.204	C.3	1	LIG1	0.000	
26	 C56	-5.971	3.694	-22.871	C.3	1	LIG1	0.000	
27	 C57	-6.786	6.066	-22.592	C.3	1	LIG1	0.000	
28	 C58	-4.865	5.610	-21.801	C.3	1	LIG1	0.000	
29	 C59	-7.903	1.833	-25.506	C.3	1	LIG1	0.000	
30	 C60	-10.100	0.984	-24.925	C.3	1	LIG1	0.000	
31	 C61	-8.112	-0.376	-24.549	C.3	1	LIG1	0.000	
32	 C62	-5.879	6.705	-21.458	C.3	1	LIG1	0.000	
33	 C63	-8.713	-1.080	-23.302	C.3	1	LIG1	0.000	
34	 C64	-5.730	5.110	-23.002	C.3	1	LIG1	0.000	
35	 N65	-8.629	0.992	-24.625	N.3	1	LIG1	0.000	
36	 F32	-5.300	7.878	-21.859	 F	1	LIG1	0.000	
@<TRIPOS>BOND
1 2 5 2
2 4 16 ar
3 5 23 1
4 5 29 1
5 3 6 2
6 4 7 ar
7 8 13 ar
8 8 9 ar
9 10 15 ar
10 11 12 ar
11 12 18 ar
12 1 13 1
13 10 13 ar
14 9 14 ar
15 14 15 ar
16 15 33 1
17 16 20 ar
18 11 17 ar
19 18 21 ar
20 7 19 ar
21 19 21 ar
22 17 20 ar
23 20 21 ar
24 6 22 1
25 19 22 1
26 23 26 1
27 22 24 1
28 24 25 1
29 26 34 1
30 28 32 1
31 29 35 1
32 14 30 1
33 27 32 1
34 32 36 1
35 6 33 1
36 25 33 1
37 31 33 1
38 27 34 1
39 28 34 1
40 30 35 1
41 31 35 1
@<TRIPOS>SUBSTRUCTURE
1	LIG1	1	GROUP	1 C	LIG
