# created with PyMOL 3.1.3.1
@<TRIPOS>MOLECULE
predicted
40 45 1                 
SMALL
USER_CHARGES
@<TRIPOS>ATOM
1	CL30	-13.236	-3.252	-22.068	Cl	1	LIG1	0.000	
2	 O27	-10.740	2.321	-24.691	O.2	1	LIG1	0.000	
3	 O28	-5.870	2.156	-24.625	O.2	1	LIG1	0.000	
4	 O29	-8.609	0.641	-21.725	O.2	1	LIG1	0.000	
5	 N31	-7.030	-5.950	-28.170	N.2	1	LIG1	0.000	
6	 N32	-8.722	-5.698	-26.022	N.2	1	LIG1	0.000	
7	 N33	-6.219	-0.631	-18.178	N.2	1	LIG1	0.000	
8	 C34	-10.194	1.208	-24.514	C.2	1	LIG1	0.000	
9	 C35	-6.984	2.539	-24.437	C.2	1	LIG1	0.000	
10	 C36	-8.202	-0.408	-22.192	C.2	1	LIG1	0.000	
11	 C37	-8.100	-6.744	-28.056	C.2	1	LIG1	0.000	
12	 C38	-8.962	-6.593	-26.958	C.2	1	LIG1	0.000	
13	 C39	-6.793	-4.990	-27.239	C.2	1	LIG1	0.000	
14	 C40	-6.897	-1.048	-19.244	C.2	1	LIG1	0.000	
15	 C41	-7.677	-4.834	-26.156	C.2	1	LIG1	0.000	
16	 C42	-13.031	-0.879	-23.257	C.2	1	LIG1	0.000	
17	 C43	-12.328	0.156	-23.813	C.2	1	LIG1	0.000	
18	 C44	-10.946	-2.061	-22.802	C.2	1	LIG1	0.000	
19	 C45	-2.803	1.214	-21.068	C.2	1	LIG1	0.000	
20	 C46	-3.473	0.773	-22.203	C.2	1	LIG1	0.000	
21	 C47	-12.339	-1.994	-22.747	C.2	1	LIG1	0.000	
22	 C48	-10.939	0.103	-23.902	C.2	1	LIG1	0.000	
23	 C49	-10.248	-1.046	-23.447	C.2	1	LIG1	0.000	
24	 C50	-5.049	0.008	-18.349	C.2	1	LIG1	0.000	
25	 C51	-3.323	0.962	-19.788	C.2	1	LIG1	0.000	
26	 C52	-4.655	0.108	-22.072	C.2	1	LIG1	0.000	
27	 C53	-6.436	-0.816	-20.566	C.2	1	LIG1	0.000	
28	 C54	-4.511	0.286	-19.632	C.2	1	LIG1	0.000	
29	 C55	-5.191	-0.139	-20.786	C.2	1	LIG1	0.000	
30	 N56	-7.323	3.262	-23.347	N.pl3	1	LIG1	0.000	
31	 N57	-7.440	-3.854	-25.262	N.pl3	1	LIG1	0.000	
32	 N58	-7.203	-1.188	-21.651	N.pl3	1	LIG1	0.000	
33	 N59	-8.842	1.045	-24.786	N.pl3	1	LIG1	0.000	
34	 C60	-6.340	3.701	-22.411	C.3	1	LIG1	0.000	
35	 C61	-8.105	2.141	-25.363	C.3	1	LIG1	0.000	
36	 C62	-8.438	-3.319	-24.414	C.3	1	LIG1	0.000	
37	 C63	-7.072	-2.440	-22.338	C.3	1	LIG1	0.000	
38	 C64	-8.228	-0.262	-24.706	C.3	1	LIG1	0.000	
39	 C65	-8.098	-2.430	-23.403	C.3	1	LIG1	0.000	
40	 C66	-8.733	-1.070	-23.456	C.3	1	LIG1	0.000	
@<TRIPOS>BOND
1 5 11 ar
2 7 24 ar
3 2 8 2
4 3 9 2
5 9 35 1
6 4 10 2
7 10 32 1
8 11 12 ar
9 6 12 ar
10 5 13 ar
11 7 14 ar
12 6 15 ar
13 13 15 ar
14 16 17 ar
15 17 22 ar
16 18 21 ar
17 19 20 ar
18 20 26 ar
19 1 21 1
20 16 21 ar
21 8 22 1
22 18 23 ar
23 22 23 ar
24 24 28 ar
25 19 25 ar
26 26 29 ar
27 14 27 ar
28 27 29 ar
29 25 28 ar
30 28 29 ar
31 9 30 1
32 15 31 1
33 27 32 1
34 32 37 1
35 8 33 1
36 33 38 1
37 30 34 1
38 33 35 1
39 31 36 1
40 37 39 1
41 38 40 1
42 36 39 1
43 10 40 1
44 23 40 1
45 39 40 1
@<TRIPOS>SUBSTRUCTURE
1	LIG1	1	GROUP	1 C	LIG
