# created with PyMOL 3.1.3.1
@<TRIPOS>MOLECULE
predicted
36 39 1                 
SMALL
USER_CHARGES
@<TRIPOS>ATOM
1	CL28	-13.167	-2.990	-22.136	Cl	1	LIG1	0.000	
2	 O23	-5.003	-4.778	-19.927	O.co2	1	LIG1	0.000	
3	 O24	-10.334	2.588	-24.396	O.2	1	LIG1	0.000	
4	 O25	-5.624	2.469	-24.234	O.2	1	LIG1	0.000	
5	 O26	-8.499	0.463	-21.375	O.2	1	LIG1	0.000	
6	 O27	-5.759	-5.497	-21.825	O.co2	1	LIG1	0.000	
7	 N29	-6.056	-0.294	-17.909	N.2	1	LIG1	0.000	
8	 C30	-5.786	-4.713	-20.880	C.2	1	LIG1	0.000	
9	 C31	-9.886	1.432	-24.246	C.2	1	LIG1	0.000	
10	 C32	-6.763	2.728	-24.057	C.2	1	LIG1	0.000	
11	 C33	-8.024	-0.521	-21.939	C.2	1	LIG1	0.000	
12	 C34	-8.207	-4.085	-21.139	C.3	1	LIG1	0.000	
13	 C35	-6.855	-3.612	-20.842	C.3	1	LIG1	0.000	
14	 C36	-6.708	-0.795	-18.936	C.2	1	LIG1	0.000	
15	 C37	-12.822	-0.533	-23.159	C.2	1	LIG1	0.000	
16	 C38	-12.071	0.498	-23.621	C.2	1	LIG1	0.000	
17	 C39	-10.833	-1.845	-22.772	C.2	1	LIG1	0.000	
18	 C40	-2.705	1.393	-20.861	C.2	1	LIG1	0.000	
19	 C41	-3.354	0.889	-21.941	C.2	1	LIG1	0.000	
20	 C42	-12.203	-1.708	-22.720	C.2	1	LIG1	0.000	
21	 C43	-10.691	0.349	-23.704	C.2	1	LIG1	0.000	
22	 C44	-10.060	-0.846	-23.319	C.2	1	LIG1	0.000	
23	 C45	-4.927	0.363	-18.090	C.2	1	LIG1	0.000	
24	 C46	-3.217	1.227	-19.583	C.2	1	LIG1	0.000	
25	 C47	-4.510	0.207	-21.776	C.2	1	LIG1	0.000	
26	 C48	-6.273	-0.644	-20.252	C.2	1	LIG1	0.000	
27	 C49	-4.383	0.544	-19.379	C.2	1	LIG1	0.000	
28	 C50	-5.042	0.023	-20.488	C.2	1	LIG1	0.000	
29	 N51	-7.162	3.309	-22.928	N.pl3	1	LIG1	0.000	
30	 N52	-6.963	-1.194	-21.368	N.pl3	1	LIG1	0.000	
31	 N53	-8.566	1.187	-24.539	N.pl3	1	LIG1	0.000	
32	 C54	-6.206	3.775	-21.983	C.3	1	LIG1	0.000	
33	 C55	-6.413	-2.491	-21.821	C.3	1	LIG1	0.000	
34	 C56	-7.794	2.292	-25.052	C.3	1	LIG1	0.000	
35	 C57	-8.007	-0.165	-24.471	C.3	1	LIG1	0.000	
36	 C58	-8.583	-0.980	-23.307	C.3	1	LIG1	0.000	
@<TRIPOS>BOND
1 7 23 ar
2 2 8 ar
3 6 8 ar
4 3 9 2
5 9 21 1
6 4 10 2
7 10 29 1
8 5 11 2
9 11 36 1
10 12 13 1
11 8 13 1
12 13 33 1
13 7 14 ar
14 15 20 ar
15 15 16 ar
16 17 22 ar
17 18 19 ar
18 19 25 ar
19 1 20 1
20 17 20 ar
21 16 21 ar
22 21 22 ar
23 23 27 ar
24 18 24 ar
25 25 28 ar
26 14 26 ar
27 26 28 ar
28 24 27 ar
29 27 28 ar
30 29 32 1
31 11 30 1
32 26 30 1
33 9 31 1
34 31 34 1
35 30 33 1
36 10 34 1
37 31 35 1
38 22 36 1
39 35 36 1
@<TRIPOS>SUBSTRUCTURE
1	LIG1	1	GROUP	1 C	LIG
