# created with PyMOL 3.1.3.1
@<TRIPOS>MOLECULE
predicted
40 45 1                 
SMALL
USER_CHARGES
@<TRIPOS>ATOM
1	CL32	-13.308	-3.249	-21.830	Cl	1	LIG1	0.000	
2	 O29	-10.836	2.361	-24.369	O.2	1	LIG1	0.000	
3	 O30	-5.959	2.281	-24.520	O.2	1	LIG1	0.000	
4	 O31	-8.645	0.634	-21.474	O.2	1	LIG1	0.000	
5	 N33	-6.212	-0.670	-18.028	N.2	1	LIG1	0.000	
6	 C34	-10.286	1.258	-24.208	C.2	1	LIG1	0.000	
7	 C35	-7.060	2.581	-24.190	C.2	1	LIG1	0.000	
8	 C36	-8.254	-0.409	-21.958	C.2	1	LIG1	0.000	
9	 C37	-6.919	-1.075	-19.077	C.2	1	LIG1	0.000	
10	 C38	-8.700	-6.300	-28.161	C.2	1	LIG1	0.000	
11	 C39	-8.022	-5.093	-28.185	C.2	1	LIG1	0.000	
12	 C40	-9.087	-6.840	-26.919	C.2	1	LIG1	0.000	
13	 C41	-13.066	-0.839	-22.976	C.2	1	LIG1	0.000	
14	 C42	-12.387	0.198	-23.515	C.2	1	LIG1	0.000	
15	 C43	-7.702	-4.444	-27.010	C.2	1	LIG1	0.000	
16	 C44	-8.741	-6.212	-25.742	C.2	1	LIG1	0.000	
17	 C45	-10.993	-2.027	-22.558	C.2	1	LIG1	0.000	
18	 C46	-2.837	1.114	-20.992	C.2	1	LIG1	0.000	
19	 C47	-3.542	0.692	-22.103	C.2	1	LIG1	0.000	
20	 C48	-12.376	-1.949	-22.489	C.2	1	LIG1	0.000	
21	 C49	-11.008	0.140	-23.613	C.2	1	LIG1	0.000	
22	 C50	-8.084	-5.003	-25.808	C.2	1	LIG1	0.000	
23	 C51	-10.310	-1.005	-23.185	C.2	1	LIG1	0.000	
24	 C52	-5.032	-0.053	-18.224	C.2	1	LIG1	0.000	
25	 C53	-3.326	0.867	-19.715	C.2	1	LIG1	0.000	
26	 C54	-4.728	0.042	-21.936	C.2	1	LIG1	0.000	
27	 C55	-6.472	-0.843	-20.390	C.2	1	LIG1	0.000	
28	 C56	-4.520	0.216	-19.518	C.2	1	LIG1	0.000	
29	 C57	-5.234	-0.193	-20.657	C.2	1	LIG1	0.000	
30	 N58	-7.305	3.175	-23.013	N.pl3	1	LIG1	0.000	
31	 N59	-7.792	-4.322	-24.595	N.pl3	1	LIG1	0.000	
32	 N60	-7.272	-1.192	-21.460	N.pl3	1	LIG1	0.000	
33	 N61	-8.944	1.134	-24.478	N.pl3	1	LIG1	0.000	
34	 C62	-6.250	3.548	-22.125	C.3	1	LIG1	0.000	
35	 C63	-8.238	2.226	-25.063	C.3	1	LIG1	0.000	
36	 C64	-8.346	-3.058	-24.450	C.3	1	LIG1	0.000	
37	 C65	-7.146	-2.413	-22.189	C.3	1	LIG1	0.000	
38	 C66	-8.323	-0.160	-24.444	C.3	1	LIG1	0.000	
39	 C67	-8.198	-2.380	-23.204	C.3	1	LIG1	0.000	
40	 C68	-8.807	-1.018	-23.230	C.3	1	LIG1	0.000	
@<TRIPOS>BOND
1 5 24 ar
2 2 6 2
3 3 7 2
4 7 35 1
5 4 8 2
6 8 32 1
7 5 9 ar
8 10 12 ar
9 10 11 ar
10 12 16 ar
11 13 14 ar
12 14 21 ar
13 11 15 ar
14 17 20 ar
15 18 19 ar
16 19 26 ar
17 1 20 1
18 13 20 ar
19 6 21 1
20 15 22 ar
21 16 22 ar
22 17 23 ar
23 21 23 ar
24 24 28 ar
25 18 25 ar
26 26 29 ar
27 9 27 ar
28 27 29 ar
29 25 28 ar
30 28 29 ar
31 7 30 1
32 22 31 1
33 27 32 1
34 32 37 1
35 6 33 1
36 33 38 1
37 30 34 1
38 33 35 1
39 31 36 1
40 37 39 1
41 38 40 1
42 36 39 1
43 8 40 1
44 23 40 1
45 39 40 1
@<TRIPOS>SUBSTRUCTURE
1	LIG1	1	GROUP	1 C	LIG
