# created with PyMOL 3.1.3.1
@<TRIPOS>MOLECULE
predicted
35 40 1                 
SMALL
USER_CHARGES
@<TRIPOS>ATOM
1	 O24	10.335	3.371	23.661	O.2	1	LIG1	0.000	
2	 O25	8.580	1.352	20.823	O.2	1	LIG1	0.000	
3	 N27	5.638	4.118	23.432	N.2	1	LIG1	0.000	
4	 N28	6.113	0.071	17.445	N.2	1	LIG1	0.000	
5	 O29	6.185	4.703	21.414	O.2	1	LIG1	0.000	
6	 C30	9.898	2.211	23.553	C.2	1	LIG1	0.000	
7	 C31	8.173	0.328	21.336	C.2	1	LIG1	0.000	
8	 C32	5.235	4.717	22.334	C.2	1	LIG1	0.000	
9	 C33	6.813	-0.289	18.496	C.2	1	LIG1	0.000	
10	 C34	6.893	3.663	23.229	C.2	1	LIG1	0.000	
11	 C35	7.273	4.080	21.977	C.2	1	LIG1	0.000	
12	 C36	12.932	0.181	22.744	C.2	1	LIG1	0.000	
13	 C37	12.141	1.241	23.103	C.2	1	LIG1	0.000	
14	 C38	10.994	-1.165	22.261	C.2	1	LIG1	0.000	
15	 C39	2.685	1.831	20.320	C.2	1	LIG1	0.000	
16	 C40	3.395	1.449	21.438	C.2	1	LIG1	0.000	
17	 C41	12.380	-1.012	22.321	C.2	1	LIG1	0.000	
18	 C42	10.758	1.106	23.101	C.2	1	LIG1	0.000	
19	 C43	10.166	-0.127	22.721	C.2	1	LIG1	0.000	
20	 C44	4.929	0.668	17.610	C.2	1	LIG1	0.000	
21	 C45	3.191	1.567	19.058	C.2	1	LIG1	0.000	
22	 C46	4.593	0.827	21.299	C.2	1	LIG1	0.000	
23	 C47	6.375	-0.066	19.797	C.2	1	LIG1	0.000	
24	 C48	4.403	0.943	18.883	C.2	1	LIG1	0.000	
25	 C49	5.124	0.572	20.015	C.2	1	LIG1	0.000	
26	 N50	7.158	-0.421	20.869	N.pl3	1	LIG1	0.000	
27	 N51	8.536	1.978	23.787	N.pl3	1	LIG1	0.000	
28	 C52	3.898	5.329	22.122	C.3	1	LIG1	0.000	
29	 C53	7.705	3.021	24.310	C.3	1	LIG1	0.000	
30	 C54	7.945	-2.347	23.864	C.3	1	LIG1	0.000	
31	 C55	6.989	-1.618	21.609	C.3	1	LIG1	0.000	
32	 C56	8.017	0.608	23.786	C.3	1	LIG1	0.000	
33	 C57	8.138	-1.629	22.598	C.3	1	LIG1	0.000	
34	 C58	8.671	-0.222	22.650	C.3	1	LIG1	0.000	
35	 F26	13.197	-1.999	21.988	 F	1	LIG1	0.000	
@<TRIPOS>BOND
1 3 10 ar
2 4 20 ar
3 1 6 2
4 2 7 2
5 7 26 1
6 3 8 ar
7 5 8 ar
8 4 9 ar
9 10 11 ar
10 10 29 1
11 5 11 ar
12 12 13 ar
13 13 18 ar
14 14 17 ar
15 15 16 ar
16 16 22 ar
17 12 17 ar
18 17 35 1
19 6 18 1
20 14 19 ar
21 18 19 ar
22 20 24 ar
23 15 21 ar
24 22 25 ar
25 9 23 ar
26 23 25 ar
27 21 24 ar
28 24 25 ar
29 23 26 1
30 26 31 1
31 6 27 1
32 27 32 1
33 8 28 1
34 27 29 1
35 31 33 1
36 32 34 1
37 30 33 1
38 7 34 1
39 19 34 1
40 33 34 1
@<TRIPOS>SUBSTRUCTURE
1	LIG1	1	GROUP	1 C	LIG
