# created with PyMOL 3.1.3.1
@<TRIPOS>MOLECULE
predicted
35 39 1                 
SMALL
USER_CHARGES
@<TRIPOS>ATOM
1	CL29	13.519	-1.824	22.264	Cl	1	LIG1	0.000	
2	 O26	10.311	3.840	23.674	O.2	1	LIG1	0.000	
3	 O27	5.765	4.153	23.394	O.2	1	LIG1	0.000	
4	 O28	8.616	1.668	20.994	O.2	1	LIG1	0.000	
5	 N30	6.275	0.080	17.579	N.2	1	LIG1	0.000	
6	 O31	8.094	-1.731	24.157	O.3	1	LIG1	0.000	
7	 C32	9.914	2.667	23.663	C.2	1	LIG1	0.000	
8	 C33	6.934	4.131	23.327	C.2	1	LIG1	0.000	
9	 C34	8.250	0.647	21.543	C.2	1	LIG1	0.000	
10	 C35	6.961	-0.224	18.660	C.2	1	LIG1	0.000	
11	 C36	12.984	0.670	22.961	C.2	1	LIG1	0.000	
12	 C37	12.161	1.725	23.256	C.2	1	LIG1	0.000	
13	 C38	11.072	-0.751	22.579	C.2	1	LIG1	0.000	
14	 C39	2.883	2.120	20.295	C.2	1	LIG1	0.000	
15	 C40	3.571	1.797	21.447	C.2	1	LIG1	0.000	
16	 C41	12.451	-0.563	22.600	C.2	1	LIG1	0.000	
17	 C42	10.797	1.545	23.268	C.2	1	LIG1	0.000	
18	 C43	10.226	0.288	22.966	C.2	1	LIG1	0.000	
19	 C44	5.112	0.707	17.697	C.2	1	LIG1	0.000	
20	 C45	3.394	1.757	19.059	C.2	1	LIG1	0.000	
21	 C46	4.752	1.130	21.372	C.2	1	LIG1	0.000	
22	 C47	6.523	0.086	19.953	C.2	1	LIG1	0.000	
23	 C48	4.590	1.082	18.947	C.2	1	LIG1	0.000	
24	 C49	5.291	0.771	20.118	C.2	1	LIG1	0.000	
25	 N50	7.509	4.698	22.271	N.pl3	1	LIG1	0.000	
26	 N51	7.283	-0.180	21.057	N.pl3	1	LIG1	0.000	
27	 N52	8.576	2.403	23.953	N.pl3	1	LIG1	0.000	
28	 C53	6.755	5.423	21.295	C.3	1	LIG1	0.000	
29	 C54	7.730	3.462	24.391	C.3	1	LIG1	0.000	
30	 C55	7.671	-3.533	25.671	C.3	1	LIG1	0.000	
31	 C56	7.701	-3.095	24.264	C.3	1	LIG1	0.000	
32	 C57	7.161	-1.376	21.852	C.3	1	LIG1	0.000	
33	 C58	8.082	1.032	24.036	C.3	1	LIG1	0.000	
34	 C59	8.228	-1.247	22.915	C.3	1	LIG1	0.000	
35	 C60	8.736	0.160	22.887	C.3	1	LIG1	0.000	
@<TRIPOS>BOND
1 5 19 ar
2 6 34 1
3 2 7 2
4 7 17 1
5 3 8 2
6 8 25 1
7 4 9 2
8 9 35 1
9 5 10 ar
10 11 16 ar
11 11 12 ar
12 13 18 ar
13 14 15 ar
14 15 21 ar
15 1 16 1
16 13 16 ar
17 12 17 ar
18 17 18 ar
19 19 23 ar
20 14 20 ar
21 21 24 ar
22 10 22 ar
23 22 24 ar
24 20 23 ar
25 23 24 ar
26 25 28 1
27 9 26 1
28 22 26 1
29 7 27 1
30 27 29 1
31 8 29 1
32 30 31 1
33 6 31 1
34 26 32 1
35 27 33 1
36 32 34 1
37 34 35 1
38 18 35 1
39 33 35 1
@<TRIPOS>SUBSTRUCTURE
1	LIG1	1	GROUP	1 C	LIG
