# created with PyMOL 3.1.3.1
@<TRIPOS>MOLECULE
predicted
20 22 1                 
SMALL
USER_CHARGES
@<TRIPOS>ATOM
1	 O19	-9.036	-0.102	-20.847	O.2	1	LIG1	0.000	
2	 N20	-6.538	-1.209	-17.482	N.2	1	LIG1	0.000	
3	 C21	-8.946	-1.185	-21.371	C.2	1	LIG1	0.000	
4	 C22	-11.995	-0.581	-22.788	C.3	1	LIG1	0.000	
5	 C23	-12.829	-1.748	-23.211	C.3	1	LIG1	0.000	
6	 C24	-7.276	-1.744	-18.450	C.2	1	LIG1	0.000	
7	 C25	-3.446	0.486	-20.715	C.2	1	LIG1	0.000	
8	 C26	-4.206	-0.043	-21.721	C.2	1	LIG1	0.000	
9	 C27	-5.433	-0.579	-17.747	C.2	1	LIG1	0.000	
10	 C28	-3.829	0.330	-19.402	C.2	1	LIG1	0.000	
11	 C29	-5.368	-0.724	-21.460	C.2	1	LIG1	0.000	
12	 C30	-6.996	-1.608	-19.785	C.2	1	LIG1	0.000	
13	 C31	-4.988	-0.366	-19.071	C.2	1	LIG1	0.000	
14	 C32	-5.768	-0.912	-20.131	C.2	1	LIG1	0.000	
15	 N33	-9.715	-1.473	-22.517	N.pl3	1	LIG1	0.000	
16	 C34	-7.935	-2.197	-20.829	C.3	1	LIG1	0.000	
17	 C35	-10.531	-0.486	-23.161	C.3	1	LIG1	0.000	
18	 C36	-12.400	-3.134	-23.132	C.3	1	LIG1	0.000	
19	 C37	-9.770	-2.770	-23.176	C.3	1	LIG1	0.000	
20	 C38	-11.012	-3.588	-22.797	C.3	1	LIG1	0.000	
@<TRIPOS>BOND
1 1 3 2
2 2 9 ar
3 3 15 1
4 3 16 1
5 4 5 1
6 5 18 1
7 2 6 ar
8 7 8 ar
9 8 11 ar
10 9 13 ar
11 7 10 ar
12 11 14 ar
13 6 12 ar
14 12 14 ar
15 10 13 ar
16 13 14 ar
17 15 17 1
18 15 19 1
19 12 16 1
20 4 17 1
21 18 20 1
22 19 20 1
@<TRIPOS>SUBSTRUCTURE
1	LIG1	1	GROUP	1 C	LIG
