# created with PyMOL 3.1.3.1
@<TRIPOS>MOLECULE
predicted
38 43 1                 
SMALL
USER_CHARGES
@<TRIPOS>ATOM
1	CL37	-13.886	-3.781	-22.017	Cl	1	LIG1	0.000	
2	 O35	-10.882	1.699	-24.383	O.2	1	LIG1	0.000	
3	 O36	-9.139	0.018	-21.333	O.2	1	LIG1	0.000	
4	 N38	-6.716	-0.949	-17.736	N.2	1	LIG1	0.000	
5	 O39	-5.716	5.418	-23.076	O.3	1	LIG1	0.000	
6	 C40	-10.448	0.572	-24.181	C.2	1	LIG1	0.000	
7	 C41	-8.722	-1.048	-21.732	C.2	1	LIG1	0.000	
8	 C42	-7.383	-1.442	-18.761	C.2	1	LIG1	0.000	
9	 C43	-13.430	-1.400	-23.172	C.2	1	LIG1	0.000	
10	 C44	-12.654	-0.381	-23.641	C.2	1	LIG1	0.000	
11	 C45	-11.469	-2.636	-22.531	C.2	1	LIG1	0.000	
12	 C46	-3.421	0.820	-20.717	C.2	1	LIG1	0.000	
13	 C47	-4.088	0.308	-21.804	C.2	1	LIG1	0.000	
14	 C48	-12.858	-2.514	-22.607	C.2	1	LIG1	0.000	
15	 C49	-11.293	-0.500	-23.622	C.2	1	LIG1	0.000	
16	 C50	-10.677	-1.655	-23.099	C.2	1	LIG1	0.000	
17	 C51	-5.573	-0.298	-17.928	C.2	1	LIG1	0.000	
18	 C52	-3.901	0.623	-19.436	C.2	1	LIG1	0.000	
19	 C53	-5.239	-0.374	-21.628	C.2	1	LIG1	0.000	
20	 C54	-6.972	-1.269	-20.088	C.2	1	LIG1	0.000	
21	 C55	-5.065	-0.073	-19.225	C.2	1	LIG1	0.000	
22	 C56	-5.761	-0.570	-20.333	C.2	1	LIG1	0.000	
23	 N57	-7.719	-1.743	-21.157	N.pl3	1	LIG1	0.000	
24	 N58	-9.106	0.332	-24.380	N.pl3	1	LIG1	0.000	
25	 C59	-7.684	5.320	-21.673	C.3	1	LIG1	0.000	
26	 C60	-7.651	6.597	-23.856	C.3	1	LIG1	0.000	
27	 C61	-5.014	4.168	-22.880	C.3	1	LIG1	0.000	
28	 C62	-8.260	1.337	-24.895	C.3	1	LIG1	0.000	
29	 C63	-7.204	5.384	-23.101	C.3	1	LIG1	0.000	
30	 C64	-8.391	-3.941	-24.004	C.3	1	LIG1	0.000	
31	 C65	-7.537	-2.996	-21.791	C.3	1	LIG1	0.000	
32	 C66	-8.567	-0.996	-24.235	C.3	1	LIG1	0.000	
33	 C67	-5.516	3.103	-23.802	C.3	1	LIG1	0.000	
34	 C68	-7.419	1.777	-23.741	C.3	1	LIG1	0.000	
35	 C69	-7.672	4.161	-23.901	C.3	1	LIG1	0.000	
36	 C70	-8.641	-3.103	-22.826	C.3	1	LIG1	0.000	
37	 C71	-9.193	-1.720	-23.011	C.3	1	LIG1	0.000	
38	 N72	-6.934	3.012	-23.691	N.3	1	LIG1	0.000	
@<TRIPOS>BOND
1 4 17 ar
2 5 29 1
3 2 6 2
4 6 15 1
5 3 7 2
6 7 37 1
7 4 8 ar
8 9 14 ar
9 9 10 ar
10 11 16 ar
11 12 13 ar
12 13 19 ar
13 1 14 1
14 11 14 ar
15 10 15 ar
16 15 16 ar
17 17 21 ar
18 12 18 ar
19 19 22 ar
20 8 20 ar
21 20 22 ar
22 18 21 ar
23 21 22 ar
24 7 23 1
25 20 23 1
26 6 24 1
27 24 28 1
28 5 27 1
29 28 34 1
30 25 29 1
31 26 29 1
32 29 35 1
33 30 36 1
34 23 31 1
35 24 32 1
36 27 33 1
37 34 38 1
38 31 36 1
39 36 37 1
40 16 37 1
41 32 37 1
42 33 38 1
43 35 38 1
@<TRIPOS>SUBSTRUCTURE
1	LIG1	1	GROUP	1 C	LIG
