# created with PyMOL 3.1.3.1
@<TRIPOS>MOLECULE
predicted
33 36 1                 
SMALL
USER_CHARGES
@<TRIPOS>ATOM
1	CL27	13.461	-1.398	20.657	Cl	1	LIG1	0.000	
2	 N25	5.820	-5.965	24.183	N.1	1	LIG1	0.000	
3	 O26	8.425	1.315	20.623	O.2	1	LIG1	0.000	
4	 C28	6.508	-5.354	24.776	C.1	1	LIG1	0.000	
5	 N29	6.076	0.203	17.213	N.2	1	LIG1	0.000	
6	 C30	8.101	0.273	21.219	C.2	1	LIG1	0.000	
7	 C31	6.735	-0.321	18.244	C.2	1	LIG1	0.000	
8	 C32	12.755	-0.378	24.464	C.2	1	LIG1	0.000	
9	 C33	13.375	-0.877	23.324	C.2	1	LIG1	0.000	
10	 C34	9.071	-2.234	23.139	C.2	1	LIG1	0.000	
11	 C35	7.262	-1.032	24.095	C.2	1	LIG1	0.000	
12	 C36	11.501	0.208	24.325	C.2	1	LIG1	0.000	
13	 C37	11.487	-0.208	21.971	C.2	1	LIG1	0.000	
14	 C38	8.782	-3.319	23.901	C.2	1	LIG1	0.000	
15	 C39	6.950	-2.114	24.870	C.2	1	LIG1	0.000	
16	 C40	2.829	2.033	20.119	C.2	1	LIG1	0.000	
17	 C41	3.504	1.558	21.207	C.2	1	LIG1	0.000	
18	 C42	12.737	-0.796	22.088	C.2	1	LIG1	0.000	
19	 C43	8.316	-1.086	23.219	C.2	1	LIG1	0.000	
20	 C44	10.919	0.337	23.081	C.2	1	LIG1	0.000	
21	 C45	7.723	-3.309	24.800	C.2	1	LIG1	0.000	
22	 C46	4.969	0.854	17.386	C.2	1	LIG1	0.000	
23	 C47	3.299	1.816	18.854	C.2	1	LIG1	0.000	
24	 C48	4.663	0.835	21.073	C.2	1	LIG1	0.000	
25	 C49	6.326	-0.149	19.542	C.2	1	LIG1	0.000	
26	 C50	4.455	1.087	18.666	C.2	1	LIG1	0.000	
27	 C51	5.152	0.584	19.771	C.2	1	LIG1	0.000	
28	 N52	8.600	0.048	22.427	N.pl3	1	LIG1	0.000	
29	 C53	7.148	-0.749	20.664	C.3	1	LIG1	0.000	
30	 C54	9.570	0.988	22.996	C.3	1	LIG1	0.000	
31	 C55	6.678	-4.123	26.882	C.3	1	LIG1	0.000	
32	 C56	8.668	-5.255	25.958	C.3	1	LIG1	0.000	
33	 C57	7.389	-4.509	25.605	C.3	1	LIG1	0.000	
@<TRIPOS>BOND
1 2 4 3
2 5 22 ar
3 3 6 2
4 6 29 1
5 5 7 ar
6 8 9 ar
7 9 18 ar
8 10 19 ar
9 11 15 ar
10 8 12 ar
11 10 14 ar
12 16 17 ar
13 17 24 ar
14 1 18 1
15 13 18 ar
16 11 19 ar
17 19 28 1
18 12 20 ar
19 13 20 ar
20 14 21 ar
21 15 21 ar
22 22 26 ar
23 16 23 ar
24 24 27 ar
25 7 25 ar
26 25 27 ar
27 23 26 ar
28 26 27 ar
29 6 28 1
30 28 30 1
31 25 29 1
32 20 30 1
33 31 33 1
34 4 33 1
35 21 33 1
36 32 33 1
@<TRIPOS>SUBSTRUCTURE
1	LIG1	1	GROUP	1 C	LIG
