# created with PyMOL 3.1.3.1
@<TRIPOS>MOLECULE
predicted
40 45 1                 
SMALL
USER_CHARGES
@<TRIPOS>ATOM
1	CL31	13.328	-1.881	21.879	Cl	1	LIG1	0.000	
2	 O28	10.190	3.635	23.784	O.2	1	LIG1	0.000	
3	 O29	5.440	3.570	23.638	O.2	1	LIG1	0.000	
4	 O30	8.459	1.638	20.910	O.2	1	LIG1	0.000	
5	 N32	7.405	-6.608	24.511	N.2	1	LIG1	0.000	
6	 N33	6.183	0.077	17.408	N.2	1	LIG1	0.000	
7	 S34	8.967	-4.830	25.002	S.2	1	LIG1	0.000	
8	 C35	9.767	2.486	23.694	C.2	1	LIG1	0.000	
9	 C36	6.587	3.748	23.448	C.2	1	LIG1	0.000	
10	 C37	8.102	0.592	21.415	C.2	1	LIG1	0.000	
11	 C38	8.620	-6.379	25.030	C.2	1	LIG1	0.000	
12	 C39	6.814	-5.495	24.160	C.2	1	LIG1	0.000	
13	 C40	6.878	-0.257	18.497	C.2	1	LIG1	0.000	
14	 C41	7.534	-4.384	24.338	C.2	1	LIG1	0.000	
15	 C42	12.801	0.544	22.792	C.2	1	LIG1	0.000	
16	 C43	11.992	1.560	23.198	C.2	1	LIG1	0.000	
17	 C44	10.880	-0.814	22.325	C.2	1	LIG1	0.000	
18	 C45	2.729	1.949	20.149	C.2	1	LIG1	0.000	
19	 C46	3.419	1.621	21.305	C.2	1	LIG1	0.000	
20	 C47	12.252	-0.644	22.355	C.2	1	LIG1	0.000	
21	 C48	10.630	1.405	23.223	C.2	1	LIG1	0.000	
22	 C49	10.063	0.184	22.823	C.2	1	LIG1	0.000	
23	 C50	5.007	0.665	17.535	C.2	1	LIG1	0.000	
24	 C51	3.253	1.633	18.898	C.2	1	LIG1	0.000	
25	 C52	4.616	0.992	21.214	C.2	1	LIG1	0.000	
26	 C53	6.422	0.053	19.783	C.2	1	LIG1	0.000	
27	 C54	4.460	0.997	18.784	C.2	1	LIG1	0.000	
28	 C55	5.159	0.681	19.951	C.2	1	LIG1	0.000	
29	 N56	7.001	4.316	22.308	N.pl3	1	LIG1	0.000	
30	 N57	7.134	-3.119	24.037	N.pl3	1	LIG1	0.000	
31	 N58	7.176	-0.243	20.894	N.pl3	1	LIG1	0.000	
32	 N59	8.421	2.228	23.929	N.pl3	1	LIG1	0.000	
33	 C60	9.540	-7.443	25.492	C.3	1	LIG1	0.000	
34	 C61	6.094	4.842	21.336	C.3	1	LIG1	0.000	
35	 C62	7.595	3.276	24.429	C.3	1	LIG1	0.000	
36	 C63	8.052	-2.001	23.985	C.3	1	LIG1	0.000	
37	 C64	7.074	-1.434	21.640	C.3	1	LIG1	0.000	
38	 C65	7.907	0.884	23.888	C.3	1	LIG1	0.000	
39	 C66	8.093	-1.347	22.719	C.3	1	LIG1	0.000	
40	 C67	8.576	0.049	22.747	C.3	1	LIG1	0.000	
@<TRIPOS>BOND
1 5 11 ar
2 6 23 ar
3 2 8 2
4 3 9 2
5 9 35 1
6 4 10 2
7 10 31 1
8 7 11 ar
9 11 33 1
10 5 12 ar
11 6 13 ar
12 7 14 ar
13 12 14 ar
14 15 16 ar
15 16 21 ar
16 17 20 ar
17 18 19 ar
18 19 25 ar
19 1 20 1
20 15 20 ar
21 8 21 1
22 17 22 ar
23 21 22 ar
24 23 27 ar
25 18 24 ar
26 25 28 ar
27 13 26 ar
28 26 28 ar
29 24 27 ar
30 27 28 ar
31 9 29 1
32 14 30 1
33 26 31 1
34 31 37 1
35 8 32 1
36 32 38 1
37 29 34 1
38 32 35 1
39 30 36 1
40 37 39 1
41 38 40 1
42 36 39 1
43 10 40 1
44 22 40 1
45 39 40 1
@<TRIPOS>SUBSTRUCTURE
1	LIG1	1	GROUP	1 C	LIG
