# created with PyMOL 3.1.3.1
@<TRIPOS>MOLECULE
predicted
35 40 1                 
SMALL
USER_CHARGES
@<TRIPOS>ATOM
1	 O23	10.595	3.322	23.683	O.2	1	LIG1	0.000	
2	 O24	8.717	1.359	20.867	O.2	1	LIG1	0.000	
3	 N26	5.863	3.203	23.384	N.2	1	LIG1	0.000	
4	 N27	6.179	0.095	17.489	N.2	1	LIG1	0.000	
5	 N28	5.279	3.995	22.432	N.2	1	LIG1	0.000	
6	 N29	7.323	4.613	22.674	N.2	1	LIG1	0.000	
7	 C30	10.161	2.166	23.584	C.2	1	LIG1	0.000	
8	 C31	8.347	0.317	21.371	C.2	1	LIG1	0.000	
9	 C32	7.089	3.589	23.519	C.2	1	LIG1	0.000	
10	 C33	6.918	-0.282	18.515	C.2	1	LIG1	0.000	
11	 C34	13.179	0.198	22.655	C.2	1	LIG1	0.000	
12	 C35	12.385	1.231	23.062	C.2	1	LIG1	0.000	
13	 C36	11.231	-1.156	22.199	C.2	1	LIG1	0.000	
14	 C37	2.787	1.722	20.474	C.2	1	LIG1	0.000	
15	 C38	3.518	1.314	21.564	C.2	1	LIG1	0.000	
16	 C39	12.621	-0.988	22.223	C.2	1	LIG1	0.000	
17	 C40	11.005	1.079	23.086	C.2	1	LIG1	0.000	
18	 C41	10.407	-0.141	22.685	C.2	1	LIG1	0.000	
19	 C42	4.987	0.667	17.689	C.2	1	LIG1	0.000	
20	 C43	3.268	1.509	19.200	C.2	1	LIG1	0.000	
21	 C44	4.732	0.716	21.384	C.2	1	LIG1	0.000	
22	 C45	6.504	-0.088	19.834	C.2	1	LIG1	0.000	
23	 C46	4.487	0.907	18.987	C.2	1	LIG1	0.000	
24	 C47	5.245	0.516	20.095	C.2	1	LIG1	0.000	
25	 N48	7.326	-0.440	20.897	N.pl3	1	LIG1	0.000	
26	 N49	8.829	1.908	23.867	N.pl3	1	LIG1	0.000	
27	 N50	6.181	4.834	22.013	N.2	1	LIG1	0.000	
28	 C51	8.043	2.936	24.481	C.3	1	LIG1	0.000	
29	 C52	5.889	5.825	21.058	C.3	1	LIG1	0.000	
30	 C53	8.258	-2.447	23.832	C.3	1	LIG1	0.000	
31	 C54	7.215	-1.668	21.631	C.3	1	LIG1	0.000	
32	 C55	8.290	0.533	23.845	C.3	1	LIG1	0.000	
33	 C56	8.392	-1.667	22.579	C.3	1	LIG1	0.000	
34	 C57	8.904	-0.259	22.655	C.3	1	LIG1	0.000	
35	 F25	13.439	-1.956	21.834	 F	1	LIG1	0.000	
@<TRIPOS>BOND
1 3 5 ar
2 4 19 ar
3 5 27 ar
4 1 7 2
5 7 17 1
6 2 8 2
7 8 34 1
8 3 9 ar
9 6 9 ar
10 4 10 ar
11 11 16 ar
12 11 12 ar
13 13 18 ar
14 14 15 ar
15 15 21 ar
16 13 16 ar
17 16 35 1
18 12 17 ar
19 17 18 ar
20 19 23 ar
21 14 20 ar
22 21 24 ar
23 10 22 ar
24 22 24 ar
25 20 23 ar
26 23 24 ar
27 8 25 1
28 22 25 1
29 7 26 1
30 26 28 1
31 6 27 ar
32 27 29 1
33 9 28 1
34 30 33 1
35 25 31 1
36 26 32 1
37 31 33 1
38 33 34 1
39 18 34 1
40 32 34 1
@<TRIPOS>SUBSTRUCTURE
1	LIG1	1	GROUP	1 C	LIG
