# created with PyMOL 3.1.3.1
@<TRIPOS>MOLECULE
predicted
37 41 1                 
SMALL
USER_CHARGES
@<TRIPOS>ATOM
1	 O30	-10.948	2.334	-24.256	O.2	1	LIG1	0.000	
2	 O31	-6.134	1.992	-24.464	O.2	1	LIG1	0.000	
3	 O32	-8.757	0.584	-21.459	O.2	1	LIG1	0.000	
4	 N34	-6.254	-0.643	-18.070	N.2	1	LIG1	0.000	
5	 O35	-8.063	-4.388	-24.610	O.3	1	LIG1	0.000	
6	 C36	-10.442	1.196	-24.120	C.2	1	LIG1	0.000	
7	 C37	-7.201	2.437	-24.206	C.2	1	LIG1	0.000	
8	 C38	-8.394	-0.487	-21.947	C.2	1	LIG1	0.000	
9	 C39	-6.975	-1.061	-19.099	C.2	1	LIG1	0.000	
10	 C40	-13.266	-0.793	-22.766	C.2	1	LIG1	0.000	
11	 C41	-12.565	0.214	-23.338	C.2	1	LIG1	0.000	
12	 C42	-11.232	-2.069	-22.413	C.2	1	LIG1	0.000	
13	 C43	-2.944	1.128	-21.086	C.2	1	LIG1	0.000	
14	 C44	-3.661	0.678	-22.176	C.2	1	LIG1	0.000	
15	 C45	-12.612	-1.942	-22.288	C.2	1	LIG1	0.000	
16	 C46	-11.192	0.108	-23.490	C.2	1	LIG1	0.000	
17	 C47	-10.521	-1.071	-23.085	C.2	1	LIG1	0.000	
18	 C48	-5.089	-0.017	-18.285	C.2	1	LIG1	0.000	
19	 C49	-3.415	0.906	-19.789	C.2	1	LIG1	0.000	
20	 C50	-4.837	0.016	-22.008	C.2	1	LIG1	0.000	
21	 C51	-6.552	-0.873	-20.423	C.2	1	LIG1	0.000	
22	 C52	-4.595	0.238	-19.585	C.2	1	LIG1	0.000	
23	 C53	-5.330	-0.201	-20.709	C.2	1	LIG1	0.000	
24	 N54	-7.433	3.173	-23.102	N.pl3	1	LIG1	0.000	
25	 N55	-7.379	-1.255	-21.470	N.pl3	1	LIG1	0.000	
26	 N56	-9.109	1.006	-24.469	N.pl3	1	LIG1	0.000	
27	 C57	-6.385	3.579	-22.241	C.3	1	LIG1	0.000	
28	 C58	-8.373	2.094	-25.065	C.3	1	LIG1	0.000	
29	 C59	-8.880	-6.349	-25.713	C.3	1	LIG1	0.000	
30	 C60	-7.295	-4.753	-26.894	C.3	1	LIG1	0.000	
31	 C61	-8.433	-4.946	-25.904	C.3	1	LIG1	0.000	
32	 C62	-8.640	-3.212	-24.404	C.3	1	LIG1	0.000	
33	 C63	-7.282	-2.496	-22.200	C.3	1	LIG1	0.000	
34	 C64	-8.538	-0.335	-24.448	C.3	1	LIG1	0.000	
35	 C65	-8.434	-2.515	-23.132	C.3	1	LIG1	0.000	
36	 C66	-9.006	-1.126	-23.176	C.3	1	LIG1	0.000	
37	 F33	-13.344	-2.896	-21.720	 F	1	LIG1	0.000	
@<TRIPOS>BOND
1 4 18 ar
2 5 31 1
3 1 6 2
4 2 7 2
5 7 28 1
6 3 8 2
7 8 25 1
8 4 9 ar
9 10 11 ar
10 11 16 ar
11 12 15 ar
12 13 14 ar
13 14 20 ar
14 10 15 ar
15 15 37 1
16 6 16 1
17 12 17 ar
18 16 17 ar
19 18 22 ar
20 13 19 ar
21 20 23 ar
22 9 21 ar
23 21 23 ar
24 19 22 ar
25 22 23 ar
26 7 24 1
27 21 25 1
28 25 33 1
29 6 26 1
30 26 34 1
31 24 27 1
32 26 28 1
33 29 31 1
34 30 31 1
35 5 32 1
36 33 35 1
37 34 36 1
38 32 35 1
39 8 36 1
40 17 36 1
41 35 36 1
@<TRIPOS>SUBSTRUCTURE
1	LIG1	1	GROUP	1 C	LIG
