# created with PyMOL 3.1.3.1
@<TRIPOS>MOLECULE
predicted
28 31 1                 
SMALL
USER_CHARGES
@<TRIPOS>ATOM
1	 O27	-8.672	0.308	-21.217	O.2	1	LIG1	0.000	
2	 N28	-6.175	-0.593	-17.837	N.2	1	LIG1	0.000	
3	 O29	-7.641	0.461	-24.613	O.3	1	LIG1	0.000	
4	 C30	-8.479	-0.739	-21.725	C.2	1	LIG1	0.000	
5	 C31	-6.916	-1.160	-18.813	C.2	1	LIG1	0.000	
6	 C32	-9.060	3.767	-24.024	C.2	1	LIG1	0.000	
7	 C33	-10.326	3.461	-23.488	C.2	1	LIG1	0.000	
8	 C34	-8.163	2.784	-24.370	C.2	1	LIG1	0.000	
9	 C35	-10.655	2.149	-23.338	C.2	1	LIG1	0.000	
10	 C36	-3.081	1.027	-21.054	C.2	1	LIG1	0.000	
11	 C37	-3.812	0.467	-22.064	C.2	1	LIG1	0.000	
12	 C38	-8.510	1.464	-24.219	C.2	1	LIG1	0.000	
13	 C39	-9.775	1.141	-23.724	C.2	1	LIG1	0.000	
14	 C40	-5.064	0.036	-18.106	C.2	1	LIG1	0.000	
15	 C41	-3.477	0.898	-19.736	C.2	1	LIG1	0.000	
16	 C42	-4.960	-0.218	-21.805	C.2	1	LIG1	0.000	
17	 C43	-6.580	-1.082	-20.155	C.2	1	LIG1	0.000	
18	 C44	-4.636	0.189	-19.431	C.2	1	LIG1	0.000	
19	 C45	-5.393	-0.373	-20.480	C.2	1	LIG1	0.000	
20	 N46	-9.256	-1.093	-22.844	N.pl3	1	LIG1	0.000	
21	 C47	-6.333	0.807	-24.976	C.3	1	LIG1	0.000	
22	 C48	-7.472	-1.699	-21.208	C.3	1	LIG1	0.000	
23	 C49	-9.271	-2.425	-23.377	C.3	1	LIG1	0.000	
24	 C50	-13.007	-2.606	-24.080	C.3	1	LIG1	0.000	
25	 C51	-10.662	-2.992	-23.446	C.3	1	LIG1	0.000	
26	 C52	-11.542	-0.712	-23.552	C.3	1	LIG1	0.000	
27	 C53	-11.622	-2.066	-24.105	C.3	1	LIG1	0.000	
28	 C54	-10.148	-0.233	-23.526	C.3	1	LIG1	0.000	
@<TRIPOS>BOND
1 2 14 ar
2 3 12 1
3 1 4 2
4 4 22 1
5 2 5 ar
6 6 7 ar
7 7 9 ar
8 6 8 ar
9 9 13 ar
10 10 11 ar
11 11 16 ar
12 8 12 ar
13 12 13 ar
14 13 28 1
15 14 18 ar
16 10 15 ar
17 16 19 ar
18 5 17 ar
19 17 19 ar
20 15 18 ar
21 18 19 ar
22 4 20 1
23 3 21 1
24 17 22 1
25 20 23 1
26 23 25 1
27 26 27 1
28 24 27 1
29 25 27 1
30 20 28 1
31 26 28 1
@<TRIPOS>SUBSTRUCTURE
1	LIG1	1	GROUP	1 C	LIG
