# created with PyMOL 3.1.3.1
@<TRIPOS>MOLECULE
predicted
40 45 1                 
SMALL
USER_CHARGES
@<TRIPOS>ATOM
1	CL32	-13.285	-3.428	-21.804	Cl	1	LIG1	0.000	
2	 O29	-10.776	2.174	-24.400	O.2	1	LIG1	0.000	
3	 O30	-5.924	2.180	-24.282	O.2	1	LIG1	0.000	
4	 O31	-8.643	0.533	-21.414	O.2	1	LIG1	0.000	
5	 N33	-6.224	-0.700	-17.856	N.2	1	LIG1	0.000	
6	 N34	-7.630	-5.840	-27.637	N.2	1	LIG1	0.000	
7	 C35	-10.226	1.073	-24.209	C.2	1	LIG1	0.000	
8	 C36	-7.052	2.485	-24.072	C.2	1	LIG1	0.000	
9	 C37	-8.234	-0.528	-21.863	C.2	1	LIG1	0.000	
10	 C38	-7.112	-5.001	-26.734	C.2	1	LIG1	0.000	
11	 C39	-6.911	-1.134	-18.911	C.2	1	LIG1	0.000	
12	 C40	-13.037	-1.044	-23.011	C.2	1	LIG1	0.000	
13	 C41	-12.349	-0.012	-23.551	C.2	1	LIG1	0.000	
14	 C42	-10.959	-2.193	-22.505	C.2	1	LIG1	0.000	
15	 C43	-2.895	1.198	-20.780	C.2	1	LIG1	0.000	
16	 C44	-3.571	0.749	-21.892	C.2	1	LIG1	0.000	
17	 C45	-12.344	-2.139	-22.473	C.2	1	LIG1	0.000	
18	 C46	-10.960	-0.049	-23.616	C.2	1	LIG1	0.000	
19	 C47	-7.776	-5.197	-25.556	C.2	1	LIG1	0.000	
20	 C48	-10.262	-1.181	-23.147	C.2	1	LIG1	0.000	
21	 C49	-5.074	-0.039	-18.045	C.2	1	LIG1	0.000	
22	 C50	-3.388	0.943	-19.502	C.2	1	LIG1	0.000	
23	 C51	-4.733	0.063	-21.741	C.2	1	LIG1	0.000	
24	 C52	-6.472	-0.888	-20.224	C.2	1	LIG1	0.000	
25	 C53	-8.702	-6.174	-25.724	C.2	1	LIG1	0.000	
26	 C54	-4.557	0.246	-19.324	C.2	1	LIG1	0.000	
27	 C55	-5.245	-0.193	-20.463	C.2	1	LIG1	0.000	
28	 N56	-7.405	3.135	-22.950	N.pl3	1	LIG1	0.000	
29	 N57	-7.539	-4.476	-24.363	N.pl3	1	LIG1	0.000	
30	 N58	-7.239	-1.283	-21.309	N.pl3	1	LIG1	0.000	
31	 N59	-8.870	0.944	-24.448	N.pl3	1	LIG1	0.000	
32	 N60	-8.587	-6.517	-27.008	N.2	1	LIG1	0.000	
33	 C61	-6.423	3.596	-22.013	C.3	1	LIG1	0.000	
34	 C62	-8.151	2.054	-25.014	C.3	1	LIG1	0.000	
35	 C63	-9.355	-7.446	-27.744	C.3	1	LIG1	0.000	
36	 C64	-8.254	-3.266	-24.236	C.3	1	LIG1	0.000	
37	 C65	-7.091	-2.523	-21.988	C.3	1	LIG1	0.000	
38	 C66	-8.227	-0.342	-24.361	C.3	1	LIG1	0.000	
39	 C67	-8.132	-2.528	-23.046	C.3	1	LIG1	0.000	
40	 C68	-8.745	-1.171	-23.132	C.3	1	LIG1	0.000	
@<TRIPOS>BOND
1 5 21 ar
2 6 32 ar
3 2 7 2
4 3 8 2
5 8 34 1
6 4 9 2
7 9 30 1
8 6 10 ar
9 5 11 ar
10 12 13 ar
11 13 18 ar
12 14 17 ar
13 15 16 ar
14 16 23 ar
15 1 17 1
16 12 17 ar
17 7 18 1
18 10 19 ar
19 19 25 ar
20 14 20 ar
21 18 20 ar
22 21 26 ar
23 15 22 ar
24 23 27 ar
25 11 24 ar
26 24 27 ar
27 22 26 ar
28 26 27 ar
29 8 28 1
30 19 29 1
31 24 30 1
32 30 37 1
33 7 31 1
34 31 38 1
35 25 32 ar
36 32 35 1
37 28 33 1
38 31 34 1
39 29 36 1
40 37 39 1
41 38 40 1
42 36 39 1
43 9 40 1
44 20 40 1
45 39 40 1
@<TRIPOS>SUBSTRUCTURE
1	LIG1	1	GROUP	1 C	LIG
