# created with PyMOL 3.1.3.1
@<TRIPOS>MOLECULE
predicted
34 38 1                 
SMALL
USER_CHARGES
@<TRIPOS>ATOM
1	CL29	-13.233	-3.165	-21.828	Cl	1	LIG1	0.000	
2	 O26	-10.716	2.367	-24.437	O.2	1	LIG1	0.000	
3	 O27	-5.924	2.328	-24.494	O.2	1	LIG1	0.000	
4	 O28	-8.592	0.633	-21.505	O.2	1	LIG1	0.000	
5	 N30	-6.143	-0.657	-17.982	N.2	1	LIG1	0.000	
6	 C31	-10.191	1.248	-24.284	C.2	1	LIG1	0.000	
7	 C32	-7.055	2.651	-24.297	C.2	1	LIG1	0.000	
8	 C33	-8.187	-0.415	-21.985	C.2	1	LIG1	0.000	
9	 C34	-6.825	-1.055	-19.033	C.2	1	LIG1	0.000	
10	 C35	-13.003	-0.814	-23.027	C.2	1	LIG1	0.000	
11	 C36	-12.307	0.208	-23.592	C.2	1	LIG1	0.000	
12	 C37	-10.935	-2.014	-22.550	C.2	1	LIG1	0.000	
13	 C38	-2.815	1.278	-20.868	C.2	1	LIG1	0.000	
14	 C39	-3.507	0.860	-21.983	C.2	1	LIG1	0.000	
15	 C40	-12.326	-1.922	-22.489	C.2	1	LIG1	0.000	
16	 C41	-10.925	0.138	-23.661	C.2	1	LIG1	0.000	
17	 C42	-10.238	-1.016	-23.216	C.2	1	LIG1	0.000	
18	 C43	-4.990	-0.009	-18.147	C.2	1	LIG1	0.000	
19	 C44	-3.302	0.993	-19.595	C.2	1	LIG1	0.000	
20	 C45	-4.672	0.187	-21.837	C.2	1	LIG1	0.000	
21	 C46	-6.408	-0.795	-20.359	C.2	1	LIG1	0.000	
22	 C47	-4.483	0.303	-19.424	C.2	1	LIG1	0.000	
23	 C48	-5.188	-0.101	-20.570	C.2	1	LIG1	0.000	
24	 N49	-7.411	3.390	-23.217	N.pl3	1	LIG1	0.000	
25	 N50	-7.184	-1.168	-21.449	N.pl3	1	LIG1	0.000	
26	 N51	-8.846	1.079	-24.571	N.pl3	1	LIG1	0.000	
27	 C52	-8.150	2.170	-25.206	C.3	1	LIG1	0.000	
28	 C53	-6.631	5.393	-22.184	C.3	1	LIG1	0.000	
29	 C54	-6.413	3.911	-22.306	C.3	1	LIG1	0.000	
30	 C55	-8.086	-3.234	-24.362	C.3	1	LIG1	0.000	
31	 C56	-7.017	-2.395	-22.147	C.3	1	LIG1	0.000	
32	 C57	-8.219	-0.255	-24.505	C.3	1	LIG1	0.000	
33	 C58	-8.131	-2.418	-23.157	C.3	1	LIG1	0.000	
34	 C59	-8.728	-1.046	-23.249	C.3	1	LIG1	0.000	
@<TRIPOS>BOND
1 5 18 ar
2 2 6 2
3 3 7 2
4 7 27 1
5 4 8 2
6 8 25 1
7 5 9 ar
8 10 11 ar
9 11 16 ar
10 12 15 ar
11 13 14 ar
12 14 20 ar
13 1 15 1
14 10 15 ar
15 6 16 1
16 12 17 ar
17 16 17 ar
18 18 22 ar
19 13 19 ar
20 20 23 ar
21 9 21 ar
22 21 23 ar
23 19 22 ar
24 22 23 ar
25 7 24 1
26 21 25 1
27 25 31 1
28 6 26 1
29 26 32 1
30 26 27 1
31 28 29 1
32 24 29 1
33 31 33 1
34 32 34 1
35 30 33 1
36 8 34 1
37 17 34 1
38 33 34 1
@<TRIPOS>SUBSTRUCTURE
1	LIG1	1	GROUP	1 C	LIG
