# created with PyMOL 3.1.3.1
@<TRIPOS>MOLECULE
predicted
40 45 1                 
SMALL
USER_CHARGES
@<TRIPOS>ATOM
1	CL30	-13.263	-3.240	-21.785	Cl	1	LIG1	0.000	
2	 O27	-10.789	2.411	-24.211	O.2	1	LIG1	0.000	
3	 O28	-5.961	2.254	-24.297	O.2	1	LIG1	0.000	
4	 O29	-8.636	0.624	-21.359	O.2	1	LIG1	0.000	
5	 N31	-7.705	-5.540	-28.466	N.2	1	LIG1	0.000	
6	 N32	-7.452	-3.893	-26.825	N.2	1	LIG1	0.000	
7	 N33	-6.241	-0.735	-17.892	N.2	1	LIG1	0.000	
8	 C34	-10.259	1.291	-24.085	C.2	1	LIG1	0.000	
9	 C35	-7.057	2.619	-24.031	C.2	1	LIG1	0.000	
10	 C36	-8.269	-0.422	-21.845	C.2	1	LIG1	0.000	
11	 C37	-7.341	-4.306	-28.067	C.2	1	LIG1	0.000	
12	 C38	-8.223	-6.378	-27.568	C.2	1	LIG1	0.000	
13	 C39	-6.941	-1.125	-18.951	C.2	1	LIG1	0.000	
14	 C40	-7.990	-4.726	-25.893	C.2	1	LIG1	0.000	
15	 C41	-8.384	-6.012	-26.217	C.2	1	LIG1	0.000	
16	 C42	-13.063	-0.827	-22.891	C.2	1	LIG1	0.000	
17	 C43	-12.373	0.217	-23.414	C.2	1	LIG1	0.000	
18	 C44	-10.984	-2.022	-22.496	C.2	1	LIG1	0.000	
19	 C45	-2.901	1.207	-20.769	C.2	1	LIG1	0.000	
20	 C46	-3.585	0.791	-21.896	C.2	1	LIG1	0.000	
21	 C47	-12.372	-1.960	-22.423	C.2	1	LIG1	0.000	
22	 C48	-10.989	0.164	-23.516	C.2	1	LIG1	0.000	
23	 C49	-10.305	-0.997	-23.106	C.2	1	LIG1	0.000	
24	 C50	-5.082	-0.095	-18.060	C.2	1	LIG1	0.000	
25	 C51	-3.392	0.914	-19.492	C.2	1	LIG1	0.000	
26	 C52	-4.752	0.105	-21.758	C.2	1	LIG1	0.000	
27	 C53	-6.491	-0.883	-20.260	C.2	1	LIG1	0.000	
28	 C54	-4.569	0.223	-19.336	C.2	1	LIG1	0.000	
29	 C55	-5.263	-0.178	-20.482	C.2	1	LIG1	0.000	
30	 N56	-7.337	3.273	-22.895	N.pl3	1	LIG1	0.000	
31	 N57	-8.148	-4.291	-24.633	N.pl3	1	LIG1	0.000	
32	 N58	-7.273	-1.219	-21.339	N.pl3	1	LIG1	0.000	
33	 N59	-8.924	1.150	-24.368	N.pl3	1	LIG1	0.000	
34	 C60	-6.308	3.684	-22.007	C.3	1	LIG1	0.000	
35	 C61	-8.211	2.264	-24.910	C.3	1	LIG1	0.000	
36	 C62	-8.022	-2.920	-24.406	C.3	1	LIG1	0.000	
37	 C63	-7.146	-2.437	-22.064	C.3	1	LIG1	0.000	
38	 C64	-8.305	-0.156	-24.342	C.3	1	LIG1	0.000	
39	 C65	-8.229	-2.398	-23.119	C.3	1	LIG1	0.000	
40	 C66	-8.803	-1.019	-23.129	C.3	1	LIG1	0.000	
@<TRIPOS>BOND
1 5 11 ar
2 7 24 ar
3 2 8 2
4 3 9 2
5 9 35 1
6 4 10 2
7 10 32 1
8 6 11 ar
9 5 12 ar
10 7 13 ar
11 6 14 ar
12 14 15 ar
13 12 15 ar
14 16 17 ar
15 17 22 ar
16 18 21 ar
17 19 20 ar
18 20 26 ar
19 1 21 1
20 16 21 ar
21 8 22 1
22 18 23 ar
23 22 23 ar
24 24 28 ar
25 19 25 ar
26 26 29 ar
27 13 27 ar
28 27 29 ar
29 25 28 ar
30 28 29 ar
31 9 30 1
32 14 31 1
33 27 32 1
34 32 37 1
35 8 33 1
36 33 38 1
37 30 34 1
38 33 35 1
39 31 36 1
40 37 39 1
41 38 40 1
42 36 39 1
43 10 40 1
44 23 40 1
45 39 40 1
@<TRIPOS>SUBSTRUCTURE
1	LIG1	1	GROUP	1 C	LIG
