# created with PyMOL 3.1.3.1
@<TRIPOS>MOLECULE
predicted
37 41 1                 
SMALL
USER_CHARGES
@<TRIPOS>ATOM
1	CL32	13.132	-1.621	20.782	Cl	1	LIG1	0.000	
2	 O30	8.407	1.481	20.788	O.2	1	LIG1	0.000	
3	 O31	5.347	-5.225	19.740	O.2	1	LIG1	0.000	
4	 N33	6.118	0.545	17.058	N.2	1	LIG1	0.000	
5	 C34	8.018	0.402	21.186	C.2	1	LIG1	0.000	
6	 C35	6.168	-4.643	20.356	C.2	1	LIG1	0.000	
7	 C36	6.753	0.065	18.098	C.2	1	LIG1	0.000	
8	 C37	12.593	0.059	24.299	C.2	1	LIG1	0.000	
9	 C38	13.171	-0.565	23.216	C.2	1	LIG1	0.000	
10	 C39	8.693	-2.081	23.845	C.2	1	LIG1	0.000	
11	 C40	11.258	0.436	24.251	C.2	1	LIG1	0.000	
12	 C41	11.095	-0.450	22.063	C.2	1	LIG1	0.000	
13	 C42	7.158	-2.324	22.112	C.2	1	LIG1	0.000	
14	 C43	8.479	-3.377	24.268	C.2	1	LIG1	0.000	
15	 C44	2.715	2.352	19.862	C.2	1	LIG1	0.000	
16	 C45	3.365	1.884	20.969	C.2	1	LIG1	0.000	
17	 C46	12.419	-0.813	22.120	C.2	1	LIG1	0.000	
18	 C47	8.070	-1.535	22.767	C.2	1	LIG1	0.000	
19	 C48	10.509	0.211	23.132	C.2	1	LIG1	0.000	
20	 C49	6.946	-3.646	22.462	C.2	1	LIG1	0.000	
21	 C50	7.599	-4.162	23.612	C.2	1	LIG1	0.000	
22	 C51	4.991	1.181	17.217	C.2	1	LIG1	0.000	
23	 C52	3.237	2.132	18.624	C.2	1	LIG1	0.000	
24	 C53	4.560	1.197	20.873	C.2	1	LIG1	0.000	
25	 C54	6.326	0.253	19.387	C.2	1	LIG1	0.000	
26	 C55	4.430	1.432	18.473	C.2	1	LIG1	0.000	
27	 C56	5.112	0.949	19.600	C.2	1	LIG1	0.000	
28	 N57	8.361	-0.195	22.344	N.pl3	1	LIG1	0.000	
29	 N58	9.118	0.586	23.131	N.pl3	1	LIG1	0.000	
30	 N59	6.096	-4.499	21.719	N.pl3	1	LIG1	0.000	
31	 C60	7.120	-0.379	20.415	C.3	1	LIG1	0.000	
32	 C61	8.454	1.606	23.871	C.3	1	LIG1	0.000	
33	 C62	6.970	-3.370	18.341	C.3	1	LIG1	0.000	
34	 C63	7.355	-4.055	19.653	C.3	1	LIG1	0.000	
35	 C64	7.276	-5.487	24.112	C.3	1	LIG1	0.000	
36	 C65	5.295	-5.381	22.486	C.3	1	LIG1	0.000	
37	 C66	6.337	-6.289	23.259	C.3	1	LIG1	0.000	
@<TRIPOS>BOND
1 4 22 ar
2 2 5 2
3 5 31 1
4 3 6 2
5 6 30 1
6 4 7 ar
7 8 9 ar
8 9 17 ar
9 10 18 ar
10 8 11 ar
11 13 20 ar
12 10 14 ar
13 15 16 ar
14 16 24 ar
15 1 17 1
16 12 17 ar
17 13 18 ar
18 18 28 1
19 11 19 ar
20 12 19 ar
21 14 21 ar
22 20 21 ar
23 22 26 ar
24 15 23 ar
25 24 27 ar
26 7 25 ar
27 25 27 ar
28 23 26 ar
29 26 27 ar
30 5 28 1
31 28 29 1
32 19 29 1
33 29 32 1
34 20 30 1
35 30 36 1
36 25 31 1
37 33 34 1
38 6 34 1
39 21 35 1
40 36 37 1
41 35 37 1
@<TRIPOS>SUBSTRUCTURE
1	LIG1	1	GROUP	1 C	LIG
