# created with PyMOL 3.1.3.1
@<TRIPOS>MOLECULE
predicted
21 23 1                 
SMALL
USER_CHARGES
@<TRIPOS>ATOM
1	 O21	8.404	1.555	20.677	O.2	1	LIG1	0.000	
2	 N22	6.049	0.184	17.306	N.2	1	LIG1	0.000	
3	 O23	11.813	0.735	23.282	O.3	1	LIG1	0.000	
4	 C24	8.314	0.488	21.241	C.2	1	LIG1	0.000	
5	 C25	6.807	-0.306	18.308	C.2	1	LIG1	0.000	
6	 C26	3.060	2.166	20.444	C.2	1	LIG1	0.000	
7	 C27	3.815	1.708	21.478	C.2	1	LIG1	0.000	
8	 C28	4.964	0.855	17.550	C.2	1	LIG1	0.000	
9	 C29	3.417	1.892	19.145	C.2	1	LIG1	0.000	
10	 C30	4.952	0.982	21.252	C.2	1	LIG1	0.000	
11	 C31	6.504	-0.071	19.615	C.2	1	LIG1	0.000	
12	 C32	4.554	1.160	18.859	C.2	1	LIG1	0.000	
13	 C33	5.337	0.684	19.939	C.2	1	LIG1	0.000	
14	 N34	8.948	0.298	22.446	N.pl3	1	LIG1	0.000	
15	 C35	7.426	-0.604	20.678	C.3	1	LIG1	0.000	
16	 C36	10.939	1.636	22.733	C.3	1	LIG1	0.000	
17	 C37	9.510	1.381	23.201	C.3	1	LIG1	0.000	
18	 C38	9.192	-0.987	23.056	C.3	1	LIG1	0.000	
19	 C39	13.119	-1.275	22.928	C.3	1	LIG1	0.000	
20	 C40	10.566	-1.514	22.834	C.3	1	LIG1	0.000	
21	 C41	11.757	-0.584	22.746	C.3	1	LIG1	0.000	
@<TRIPOS>BOND
1 2 8 ar
2 1 4 2
3 4 15 1
4 2 5 ar
5 6 7 ar
6 7 10 ar
7 8 12 ar
8 6 9 ar
9 10 13 ar
10 5 11 ar
11 11 13 ar
12 9 12 ar
13 12 13 ar
14 4 14 1
15 14 17 1
16 11 15 1
17 3 16 1
18 16 17 1
19 14 18 1
20 19 21 1
21 18 20 1
22 3 21 1
23 20 21 1
@<TRIPOS>SUBSTRUCTURE
1	LIG1	1	GROUP	1 C	LIG
