# created with PyMOL 3.1.3.1
@<TRIPOS>MOLECULE
predicted
20 22 1                 
SMALL
USER_CHARGES
@<TRIPOS>ATOM
1	 O17	-8.603	0.509	-21.358	O.2	1	LIG1	0.000	
2	 N18	-6.209	-0.614	-17.894	N.2	1	LIG1	0.000	
3	 C19	-8.538	-0.619	-21.830	C.2	1	LIG1	0.000	
4	 C20	-12.437	-0.939	-23.524	C.3	1	LIG1	0.000	
5	 C21	-12.123	-2.331	-23.068	C.3	1	LIG1	0.000	
6	 C22	-11.464	0.201	-23.239	C.3	1	LIG1	0.000	
7	 C23	-10.760	-2.910	-22.904	C.3	1	LIG1	0.000	
8	 C24	-6.958	-1.158	-18.853	C.2	1	LIG1	0.000	
9	 C25	-3.094	1.020	-21.118	C.2	1	LIG1	0.000	
10	 C26	-3.842	0.489	-22.127	C.2	1	LIG1	0.000	
11	 C27	-5.098	0.015	-18.158	C.2	1	LIG1	0.000	
12	 C28	-3.491	0.883	-19.810	C.2	1	LIG1	0.000	
13	 C29	-5.016	-0.170	-21.864	C.2	1	LIG1	0.000	
14	 C30	-6.653	-1.038	-20.196	C.2	1	LIG1	0.000	
15	 C31	-4.658	0.206	-19.491	C.2	1	LIG1	0.000	
16	 C32	-5.432	-0.345	-20.550	C.2	1	LIG1	0.000	
17	 N33	-9.317	-0.940	-22.961	N.pl3	1	LIG1	0.000	
18	 C34	-7.581	-1.632	-21.231	C.3	1	LIG1	0.000	
19	 C35	-10.028	0.051	-23.723	C.3	1	LIG1	0.000	
20	 C36	-9.502	-2.269	-23.481	C.3	1	LIG1	0.000	
@<TRIPOS>BOND
1 1 3 2
2 2 11 ar
3 3 17 1
4 3 18 1
5 4 5 1
6 5 7 1
7 4 6 1
8 7 20 1
9 2 8 ar
10 9 10 ar
11 10 13 ar
12 11 15 ar
13 9 12 ar
14 13 16 ar
15 8 14 ar
16 14 16 ar
17 12 15 ar
18 15 16 ar
19 17 19 1
20 17 20 1
21 14 18 1
22 6 19 1
@<TRIPOS>SUBSTRUCTURE
1	LIG1	1	GROUP	1 C	LIG
