# created with PyMOL 3.1.3.1
@<TRIPOS>MOLECULE
predicted
37 42 1                 
SMALL
USER_CHARGES
@<TRIPOS>ATOM
1	CL35	-13.818	-3.779	-22.005	Cl	1	LIG1	0.000	
2	 O33	-10.864	1.781	-24.151	O.2	1	LIG1	0.000	
3	 O34	-9.091	0.066	-21.201	O.2	1	LIG1	0.000	
4	 N36	-6.646	-0.926	-17.674	N.2	1	LIG1	0.000	
5	 O37	-6.909	5.986	-22.712	O.3	1	LIG1	0.000	
6	 C38	-10.415	0.655	-23.993	C.2	1	LIG1	0.000	
7	 C39	-8.674	-0.988	-21.638	C.2	1	LIG1	0.000	
8	 C40	-7.318	-1.401	-18.696	C.2	1	LIG1	0.000	
9	 C41	-13.390	-1.375	-23.055	C.2	1	LIG1	0.000	
10	 C42	-12.623	-0.336	-23.491	C.2	1	LIG1	0.000	
11	 C43	-11.424	-2.615	-22.465	C.2	1	LIG1	0.000	
12	 C44	-3.349	0.858	-20.665	C.2	1	LIG1	0.000	
13	 C45	-4.035	0.369	-21.752	C.2	1	LIG1	0.000	
14	 C46	-12.808	-2.506	-22.532	C.2	1	LIG1	0.000	
15	 C47	-11.255	-0.438	-23.478	C.2	1	LIG1	0.000	
16	 C48	-10.632	-1.604	-22.989	C.2	1	LIG1	0.000	
17	 C49	-5.503	-0.274	-17.884	C.2	1	LIG1	0.000	
18	 C50	-3.829	0.645	-19.394	C.2	1	LIG1	0.000	
19	 C51	-5.179	-0.312	-21.563	C.2	1	LIG1	0.000	
20	 C52	-6.906	-1.227	-20.013	C.2	1	LIG1	0.000	
21	 C53	-4.995	-0.041	-19.182	C.2	1	LIG1	0.000	
22	 C54	-5.700	-0.529	-20.276	C.2	1	LIG1	0.000	
23	 N55	-7.663	-1.685	-21.069	N.pl3	1	LIG1	0.000	
24	 N56	-9.052	0.433	-24.202	N.pl3	1	LIG1	0.000	
25	 C57	-6.295	4.947	-21.883	C.3	1	LIG1	0.000	
26	 C58	-8.203	1.470	-24.717	C.3	1	LIG1	0.000	
27	 C59	-8.805	6.551	-24.081	C.3	1	LIG1	0.000	
28	 C60	-8.307	-3.833	-23.920	C.3	1	LIG1	0.000	
29	 C61	-7.475	-2.929	-21.717	C.3	1	LIG1	0.000	
30	 C62	-8.520	-0.894	-24.106	C.3	1	LIG1	0.000	
31	 C63	-6.048	3.708	-22.696	C.3	1	LIG1	0.000	
32	 C64	-7.230	1.903	-23.683	C.3	1	LIG1	0.000	
33	 C65	-7.947	4.225	-24.022	C.3	1	LIG1	0.000	
34	 C66	-8.244	5.467	-23.199	C.3	1	LIG1	0.000	
35	 C67	-8.581	-3.020	-22.739	C.3	1	LIG1	0.000	
36	 C68	-9.139	-1.643	-22.896	C.3	1	LIG1	0.000	
37	 N69	-7.377	3.208	-23.180	N.3	1	LIG1	0.000	
@<TRIPOS>BOND
1 4 17 ar
2 2 6 2
3 3 7 2
4 7 23 1
5 4 8 ar
6 9 10 ar
7 10 15 ar
8 11 14 ar
9 12 13 ar
10 13 19 ar
11 1 14 1
12 9 14 ar
13 6 15 1
14 11 16 ar
15 15 16 ar
16 17 21 ar
17 12 18 ar
18 19 22 ar
19 8 20 ar
20 20 22 ar
21 18 21 ar
22 21 22 ar
23 20 23 1
24 23 29 1
25 6 24 1
26 24 30 1
27 5 25 1
28 24 26 1
29 27 34 1
30 29 35 1
31 30 36 1
32 25 31 1
33 26 32 1
34 33 37 1
35 5 34 1
36 33 34 1
37 28 35 1
38 7 36 1
39 16 36 1
40 35 36 1
41 31 37 1
42 32 37 1
@<TRIPOS>SUBSTRUCTURE
1	LIG1	1	GROUP	1 C	LIG
