# created with PyMOL 3.1.3.1
@<TRIPOS>MOLECULE
predicted
35 39 1                 
SMALL
USER_CHARGES
@<TRIPOS>ATOM
1	CL27	13.408	-2.009	22.012	Cl	1	LIG1	0.000	
2	 N23	7.554	-4.649	24.121	N.1	1	LIG1	0.000	
3	 O24	10.099	3.535	23.524	O.2	1	LIG1	0.000	
4	 O25	6.739	5.187	23.788	O.2	1	LIG1	0.000	
5	 O26	8.478	1.438	20.748	O.2	1	LIG1	0.000	
6	 C28	7.693	-3.579	23.847	C.1	1	LIG1	0.000	
7	 N29	6.090	-0.039	17.355	N.2	1	LIG1	0.000	
8	 C30	9.685	2.378	23.452	C.2	1	LIG1	0.000	
9	 C31	7.178	4.282	23.238	C.2	1	LIG1	0.000	
10	 C32	8.104	0.410	21.280	C.2	1	LIG1	0.000	
11	 C33	6.805	-0.374	18.413	C.2	1	LIG1	0.000	
12	 C34	12.803	0.458	22.810	C.2	1	LIG1	0.000	
13	 C35	11.965	1.489	23.119	C.2	1	LIG1	0.000	
14	 C36	10.931	-0.960	22.321	C.2	1	LIG1	0.000	
15	 C37	2.704	1.857	20.184	C.2	1	LIG1	0.000	
16	 C38	3.425	1.518	21.307	C.2	1	LIG1	0.000	
17	 C39	12.297	-0.760	22.410	C.2	1	LIG1	0.000	
18	 C40	10.603	1.303	23.080	C.2	1	LIG1	0.000	
19	 C41	10.069	0.049	22.712	C.2	1	LIG1	0.000	
20	 C42	4.911	0.560	17.496	C.2	1	LIG1	0.000	
21	 C43	3.194	1.538	18.924	C.2	1	LIG1	0.000	
22	 C44	4.607	0.870	21.178	C.2	1	LIG1	0.000	
23	 C45	6.360	-0.110	19.709	C.2	1	LIG1	0.000	
24	 C46	4.392	0.888	18.765	C.2	1	LIG1	0.000	
25	 C47	5.119	0.550	19.912	C.2	1	LIG1	0.000	
26	 N48	7.491	4.442	21.958	N.pl3	1	LIG1	0.000	
27	 N49	7.134	-0.404	20.798	N.pl3	1	LIG1	0.000	
28	 N50	8.314	2.080	23.646	N.pl3	1	LIG1	0.000	
29	 C51	7.256	5.669	21.261	C.3	1	LIG1	0.000	
30	 C52	7.314	3.015	23.970	C.3	1	LIG1	0.000	
31	 C53	8.110	-2.198	23.879	C.3	1	LIG1	0.000	
32	 C54	7.021	-1.588	21.581	C.3	1	LIG1	0.000	
33	 C55	7.866	0.730	23.720	C.3	1	LIG1	0.000	
34	 C56	8.105	-1.503	22.596	C.3	1	LIG1	0.000	
35	 C57	8.573	-0.107	22.613	C.3	1	LIG1	0.000	
@<TRIPOS>BOND
1 2 6 3
2 7 20 ar
3 3 8 2
4 4 9 2
5 9 30 1
6 5 10 2
7 10 27 1
8 7 11 ar
9 12 13 ar
10 13 18 ar
11 14 17 ar
12 15 16 ar
13 16 22 ar
14 1 17 1
15 12 17 ar
16 8 18 1
17 14 19 ar
18 18 19 ar
19 20 24 ar
20 15 21 ar
21 22 25 ar
22 11 23 ar
23 23 25 ar
24 21 24 ar
25 24 25 ar
26 9 26 1
27 23 27 1
28 27 32 1
29 8 28 1
30 28 33 1
31 26 29 1
32 28 30 1
33 6 31 1
34 32 34 1
35 33 35 1
36 31 34 1
37 10 35 1
38 19 35 1
39 34 35 1
@<TRIPOS>SUBSTRUCTURE
1	LIG1	1	GROUP	1 C	LIG
