# created with PyMOL 3.1.3.1
@<TRIPOS>MOLECULE
predicted
19 21 1                 
SMALL
USER_CHARGES
@<TRIPOS>ATOM
1	 O19	8.583	1.398	20.574	O.2	1	LIG1	0.000	
2	 N20	6.169	0.124	17.366	N.2	1	LIG1	0.000	
3	 C21	8.569	0.339	21.165	C.2	1	LIG1	0.000	
4	 C22	6.929	-0.349	18.340	C.2	1	LIG1	0.000	
5	 C23	2.964	1.704	20.535	C.2	1	LIG1	0.000	
6	 C24	3.739	1.254	21.556	C.2	1	LIG1	0.000	
7	 C25	5.023	0.699	17.622	C.2	1	LIG1	0.000	
8	 C26	3.368	1.538	19.240	C.2	1	LIG1	0.000	
9	 C27	4.938	0.641	21.324	C.2	1	LIG1	0.000	
10	 C28	6.616	-0.202	19.681	C.2	1	LIG1	0.000	
11	 C29	4.571	0.913	18.941	C.2	1	LIG1	0.000	
12	 C30	5.366	0.441	20.009	C.2	1	LIG1	0.000	
13	 N31	9.446	0.125	22.179	N.pl3	1	LIG1	0.000	
14	 C32	7.554	-0.716	20.751	C.3	1	LIG1	0.000	
15	 C33	10.362	1.171	22.623	C.3	1	LIG1	0.000	
16	 C34	9.508	-1.118	22.940	C.3	1	LIG1	0.000	
17	 C35	11.801	0.651	22.595	C.3	1	LIG1	0.000	
18	 C36	10.939	-1.673	22.931	C.3	1	LIG1	0.000	
19	 C37	11.956	-0.614	23.434	C.3	1	LIG1	0.000	
@<TRIPOS>BOND
1 1 3 2
2 2 7 ar
3 3 13 1
4 3 14 1
5 2 4 ar
6 5 6 ar
7 6 9 ar
8 7 11 ar
9 5 8 ar
10 9 12 ar
11 4 10 ar
12 10 12 ar
13 8 11 ar
14 11 12 ar
15 13 15 1
16 13 16 1
17 10 14 1
18 15 17 1
19 17 19 1
20 16 18 1
21 18 19 1
@<TRIPOS>SUBSTRUCTURE
1	LIG1	1	GROUP	1 C	LIG
