# created with PyMOL 3.1.3.1
@<TRIPOS>MOLECULE
predicted
40 45 1                 
SMALL
USER_CHARGES
@<TRIPOS>ATOM
1	CL30	-13.316	-3.823	-22.188	Cl	1	LIG1	0.000	
2	 O27	-10.392	1.857	-23.973	O.2	1	LIG1	0.000	
3	 O28	-5.792	2.295	-23.668	O.2	1	LIG1	0.000	
4	 O29	-8.650	0.051	-21.038	O.2	1	LIG1	0.000	
5	 N31	-5.026	-7.623	-22.037	N.2	1	LIG1	0.000	
6	 N32	-5.651	-5.502	-22.734	N.2	1	LIG1	0.000	
7	 N33	-6.190	-1.184	-17.443	N.2	1	LIG1	0.000	
8	 C34	-9.902	0.715	-23.834	C.2	1	LIG1	0.000	
9	 C35	-6.980	2.344	-23.633	C.2	1	LIG1	0.000	
10	 C36	-8.213	-0.998	-21.495	C.2	1	LIG1	0.000	
11	 C37	-4.802	-6.328	-22.162	C.2	1	LIG1	0.000	
12	 C38	-6.143	-8.146	-22.564	C.2	1	LIG1	0.000	
13	 C39	-6.878	-1.604	-18.514	C.2	1	LIG1	0.000	
14	 C40	-6.824	-5.946	-23.255	C.2	1	LIG1	0.000	
15	 C41	-7.080	-7.309	-23.171	C.2	1	LIG1	0.000	
16	 C42	-12.882	-1.386	-23.065	C.2	1	LIG1	0.000	
17	 C43	-12.112	-0.316	-23.431	C.2	1	LIG1	0.000	
18	 C44	-10.898	-2.643	-22.484	C.2	1	LIG1	0.000	
19	 C45	-2.936	0.860	-20.342	C.2	1	LIG1	0.000	
20	 C46	-3.630	0.421	-21.462	C.2	1	LIG1	0.000	
21	 C47	-12.295	-2.550	-22.597	C.2	1	LIG1	0.000	
22	 C48	-10.735	-0.400	-23.377	C.2	1	LIG1	0.000	
23	 C49	-10.121	-1.582	-22.942	C.2	1	LIG1	0.000	
24	 C50	-5.057	-0.520	-17.607	C.2	1	LIG1	0.000	
25	 C51	-3.398	0.552	-19.058	C.2	1	LIG1	0.000	
26	 C52	-4.766	-0.311	-21.313	C.2	1	LIG1	0.000	
27	 C53	-6.470	-1.327	-19.827	C.2	1	LIG1	0.000	
28	 C54	-4.553	-0.190	-18.891	C.2	1	LIG1	0.000	
29	 C55	-5.250	-0.609	-20.041	C.2	1	LIG1	0.000	
30	 N56	-7.604	3.074	-22.698	N.pl3	1	LIG1	0.000	
31	 N57	-7.748	-5.160	-23.866	N.pl3	1	LIG1	0.000	
32	 N58	-7.214	-1.739	-20.922	N.pl3	1	LIG1	0.000	
33	 N59	-8.533	0.516	-24.043	N.pl3	1	LIG1	0.000	
34	 C60	-6.918	3.927	-21.815	C.3	1	LIG1	0.000	
35	 C61	-7.770	1.581	-24.590	C.3	1	LIG1	0.000	
36	 C62	-7.738	-3.699	-23.939	C.3	1	LIG1	0.000	
37	 C63	-7.022	-2.954	-21.596	C.3	1	LIG1	0.000	
38	 C64	-7.941	-0.803	-23.950	C.3	1	LIG1	0.000	
39	 C65	-8.055	-3.001	-22.694	C.3	1	LIG1	0.000	
40	 C66	-8.602	-1.636	-22.800	C.3	1	LIG1	0.000	
@<TRIPOS>BOND
1 5 11 ar
2 7 24 ar
3 2 8 2
4 3 9 2
5 9 35 1
6 4 10 2
7 10 32 1
8 6 11 ar
9 5 12 ar
10 7 13 ar
11 6 14 ar
12 14 15 ar
13 12 15 ar
14 16 17 ar
15 17 22 ar
16 18 21 ar
17 19 20 ar
18 20 26 ar
19 1 21 1
20 16 21 ar
21 8 22 1
22 18 23 ar
23 22 23 ar
24 24 28 ar
25 19 25 ar
26 26 29 ar
27 13 27 ar
28 27 29 ar
29 25 28 ar
30 28 29 ar
31 9 30 1
32 14 31 1
33 27 32 1
34 32 37 1
35 8 33 1
36 33 38 1
37 30 34 1
38 33 35 1
39 31 36 1
40 37 39 1
41 38 40 1
42 36 39 1
43 10 40 1
44 23 40 1
45 39 40 1
@<TRIPOS>SUBSTRUCTURE
1	LIG1	1	GROUP	1 C	LIG
