# created with PyMOL 3.1.3.1
@<TRIPOS>MOLECULE
predicted
35 40 1                 
SMALL
USER_CHARGES
@<TRIPOS>ATOM
1	 O25	-10.787	2.301	-24.321	O.2	1	LIG1	0.000	
2	 O26	-8.707	0.555	-21.378	O.2	1	LIG1	0.000	
3	 N28	-6.182	-0.509	-17.936	N.2	1	LIG1	0.000	
4	 N29	-5.428	3.562	-23.211	N.2	1	LIG1	0.000	
5	 C30	-10.262	1.185	-24.141	C.2	1	LIG1	0.000	
6	 C31	-8.272	-0.479	-21.860	C.2	1	LIG1	0.000	
7	 C32	-6.323	3.585	-22.271	C.2	1	LIG1	0.000	
8	 C33	-6.873	-0.953	-18.971	C.2	1	LIG1	0.000	
9	 C34	-13.113	-0.877	-22.879	C.2	1	LIG1	0.000	
10	 C35	-12.403	0.161	-23.424	C.2	1	LIG1	0.000	
11	 C36	-11.049	-2.104	-22.473	C.2	1	LIG1	0.000	
12	 C37	-2.843	1.276	-20.920	C.2	1	LIG1	0.000	
13	 C38	-3.524	0.798	-22.013	C.2	1	LIG1	0.000	
14	 C39	-7.504	3.053	-22.811	C.2	1	LIG1	0.000	
15	 C40	-12.447	-2.016	-22.402	C.2	1	LIG1	0.000	
16	 C41	-11.012	0.079	-23.516	C.2	1	LIG1	0.000	
17	 C42	-10.333	-1.095	-23.103	C.2	1	LIG1	0.000	
18	 C43	-5.024	0.147	-18.132	C.2	1	LIG1	0.000	
19	 C44	-3.335	1.062	-19.632	C.2	1	LIG1	0.000	
20	 C45	-4.693	0.128	-21.835	C.2	1	LIG1	0.000	
21	 C46	-6.448	-0.771	-20.290	C.2	1	LIG1	0.000	
22	 C47	-7.223	2.700	-24.113	C.2	1	LIG1	0.000	
23	 C48	-4.517	0.385	-19.421	C.2	1	LIG1	0.000	
24	 C49	-5.220	-0.086	-20.542	C.2	1	LIG1	0.000	
25	 N50	-7.234	-1.188	-21.363	N.pl3	1	LIG1	0.000	
26	 N51	-8.913	1.001	-24.451	N.pl3	1	LIG1	0.000	
27	 N52	-5.991	3.056	-24.342	N.2	1	LIG1	0.000	
28	 C53	-8.196	2.058	-25.108	C.3	1	LIG1	0.000	
29	 C54	-5.246	2.892	-25.564	C.3	1	LIG1	0.000	
30	 C55	-8.172	-3.296	-24.256	C.3	1	LIG1	0.000	
31	 C56	-7.067	-2.423	-22.064	C.3	1	LIG1	0.000	
32	 C57	-8.295	-0.316	-24.358	C.3	1	LIG1	0.000	
33	 C58	-8.221	-2.493	-23.028	C.3	1	LIG1	0.000	
34	 C59	-8.822	-1.121	-23.132	C.3	1	LIG1	0.000	
35	 F27	-13.160	-2.999	-21.884	 F	1	LIG1	0.000	
@<TRIPOS>BOND
1 3 18 ar
2 4 27 ar
3 1 5 2
4 5 16 1
5 2 6 2
6 6 34 1
7 4 7 ar
8 3 8 ar
9 9 15 ar
10 9 10 ar
11 11 17 ar
12 12 13 ar
13 13 20 ar
14 7 14 ar
15 11 15 ar
16 15 35 1
17 10 16 ar
18 16 17 ar
19 18 23 ar
20 12 19 ar
21 20 24 ar
22 8 21 ar
23 21 24 ar
24 14 22 ar
25 22 27 ar
26 19 23 ar
27 23 24 ar
28 6 25 1
29 21 25 1
30 5 26 1
31 26 28 1
32 27 29 1
33 22 28 1
34 30 33 1
35 25 31 1
36 26 32 1
37 31 33 1
38 33 34 1
39 17 34 1
40 32 34 1
@<TRIPOS>SUBSTRUCTURE
1	LIG1	1	GROUP	1 C	LIG
