# created with PyMOL 3.1.3.1
@<TRIPOS>MOLECULE
predicted
36 40 1                 
SMALL
USER_CHARGES
@<TRIPOS>ATOM
1	CL32	13.241	-2.044	24.094	Cl	1	LIG1	0.000	
2	 O30	8.107	1.350	20.746	O.2	1	LIG1	0.000	
3	 O31	3.599	-4.056	25.226	O.2	1	LIG1	0.000	
4	 N33	6.225	0.297	17.065	N.2	1	LIG1	0.000	
5	 C34	7.884	0.241	21.234	C.2	1	LIG1	0.000	
6	 C35	4.565	-3.809	24.619	C.2	1	LIG1	0.000	
7	 C36	6.774	-0.280	18.141	C.2	1	LIG1	0.000	
8	 C37	12.628	1.422	22.213	C.2	1	LIG1	0.000	
9	 C38	8.763	-3.622	23.437	C.2	1	LIG1	0.000	
10	 C39	13.230	0.295	22.717	C.2	1	LIG1	0.000	
11	 C40	8.979	-2.381	22.871	C.2	1	LIG1	0.000	
12	 C41	11.271	1.583	22.385	C.2	1	LIG1	0.000	
13	 C42	11.174	-0.424	23.578	C.2	1	LIG1	0.000	
14	 C43	7.663	-3.846	24.177	C.2	1	LIG1	0.000	
15	 C44	2.847	2.287	19.765	C.2	1	LIG1	0.000	
16	 C45	3.409	1.741	20.891	C.2	1	LIG1	0.000	
17	 C46	12.508	-0.612	23.399	C.2	1	LIG1	0.000	
18	 C47	8.106	-1.319	23.092	C.2	1	LIG1	0.000	
19	 C48	10.562	0.674	23.070	C.2	1	LIG1	0.000	
20	 C49	7.016	-1.519	23.885	C.2	1	LIG1	0.000	
21	 C50	6.757	-2.796	24.395	C.2	1	LIG1	0.000	
22	 C51	5.144	1.010	17.174	C.2	1	LIG1	0.000	
23	 C52	3.411	2.067	18.539	C.2	1	LIG1	0.000	
24	 C53	4.540	0.953	20.825	C.2	1	LIG1	0.000	
25	 C54	6.282	-0.110	19.405	C.2	1	LIG1	0.000	
26	 C55	4.544	1.265	18.417	C.2	1	LIG1	0.000	
27	 C56	5.122	0.692	19.572	C.2	1	LIG1	0.000	
28	 N57	8.342	-0.065	22.481	N.pl3	1	LIG1	0.000	
29	 C58	7.002	-0.760	20.562	C.3	1	LIG1	0.000	
30	 C59	9.100	0.882	23.246	C.3	1	LIG1	0.000	
31	 C60	3.570	-4.535	22.436	C.3	1	LIG1	0.000	
32	 C61	4.789	-4.441	23.245	C.3	1	LIG1	0.000	
33	 C62	6.055	-0.431	24.200	C.3	1	LIG1	0.000	
34	 C63	5.036	-0.669	25.151	C.3	1	LIG1	0.000	
35	 C64	5.209	-1.993	26.015	C.3	1	LIG1	0.000	
36	 N65	5.534	-2.993	25.062	N.pl3	1	LIG1	0.000	
@<TRIPOS>BOND
1 4 22 ar
2 2 5 2
3 5 29 1
4 3 6 2
5 6 36 1
6 4 7 ar
7 8 10 ar
8 9 14 ar
9 10 17 ar
10 9 11 ar
11 8 12 ar
12 14 21 ar
13 15 16 ar
14 16 24 ar
15 1 17 1
16 13 17 ar
17 11 18 ar
18 18 28 1
19 12 19 ar
20 13 19 ar
21 18 20 ar
22 20 21 ar
23 22 26 ar
24 15 23 ar
25 24 27 ar
26 7 25 ar
27 25 27 ar
28 23 26 ar
29 26 27 ar
30 5 28 1
31 28 30 1
32 25 29 1
33 19 30 1
34 31 32 1
35 6 32 1
36 20 33 1
37 33 34 1
38 34 35 1
39 21 36 1
40 35 36 1
@<TRIPOS>SUBSTRUCTURE
1	LIG1	1	GROUP	1 C	LIG
