# created with PyMOL 3.1.3.1
@<TRIPOS>MOLECULE
predicted
38 43 1                 
SMALL
USER_CHARGES
@<TRIPOS>ATOM
1	CL27	-13.016	-3.051	-21.959	Cl	1	LIG1	0.000	
2	 O24	-10.241	2.377	-24.673	O.2	1	LIG1	0.000	
3	 O25	-5.505	2.510	-24.474	O.2	1	LIG1	0.000	
4	 O26	-8.311	0.685	-21.667	O.2	1	LIG1	0.000	
5	 N28	-5.487	-6.040	-24.191	N.2	1	LIG1	0.000	
6	 N29	-6.018	-0.550	-18.042	N.2	1	LIG1	0.000	
7	 N30	-5.846	-4.799	-24.637	N.2	1	LIG1	0.000	
8	 N31	-7.485	-5.647	-23.441	N.2	1	LIG1	0.000	
9	 C32	-9.757	1.245	-24.464	C.2	1	LIG1	0.000	
10	 C33	-6.654	2.641	-24.332	C.2	1	LIG1	0.000	
11	 C34	-7.920	-0.400	-22.088	C.2	1	LIG1	0.000	
12	 C35	-6.492	-6.531	-23.488	C.2	1	LIG1	0.000	
13	 C36	-6.681	-0.983	-19.098	C.2	1	LIG1	0.000	
14	 C37	-12.686	-0.694	-23.225	C.2	1	LIG1	0.000	
15	 C38	-11.942	0.305	-23.776	C.2	1	LIG1	0.000	
16	 C39	-10.674	-1.973	-22.724	C.2	1	LIG1	0.000	
17	 C40	-2.613	1.300	-20.892	C.2	1	LIG1	0.000	
18	 C41	-3.267	0.857	-22.026	C.2	1	LIG1	0.000	
19	 C42	-12.056	-1.841	-22.674	C.2	1	LIG1	0.000	
20	 C43	-10.561	0.185	-23.833	C.2	1	LIG1	0.000	
21	 C44	-9.927	-0.997	-23.358	C.2	1	LIG1	0.000	
22	 C45	-4.861	0.101	-18.188	C.2	1	LIG1	0.000	
23	 C46	-3.139	1.053	-19.624	C.2	1	LIG1	0.000	
24	 C47	-4.441	0.183	-21.897	C.2	1	LIG1	0.000	
25	 C48	-6.223	-0.744	-20.408	C.2	1	LIG1	0.000	
26	 C49	-4.320	0.378	-19.464	C.2	1	LIG1	0.000	
27	 C50	-4.994	-0.061	-20.628	C.2	1	LIG1	0.000	
28	 N51	-7.142	3.251	-23.234	N.pl3	1	LIG1	0.000	
29	 N52	-6.966	-1.158	-21.502	N.pl3	1	LIG1	0.000	
30	 N53	-8.408	1.009	-24.725	N.pl3	1	LIG1	0.000	
31	 N54	-7.055	-4.595	-24.137	N.2	1	LIG1	0.000	
32	 C55	-6.279	3.839	-22.269	C.3	1	LIG1	0.000	
33	 C56	-7.629	2.048	-25.332	C.3	1	LIG1	0.000	
34	 C57	-6.824	-2.424	-22.136	C.3	1	LIG1	0.000	
35	 C58	-7.821	-3.315	-24.390	C.3	1	LIG1	0.000	
36	 C59	-7.831	-0.330	-24.593	C.3	1	LIG1	0.000	
37	 C60	-7.877	-2.486	-23.224	C.3	1	LIG1	0.000	
38	 C61	-8.423	-1.071	-23.353	C.3	1	LIG1	0.000	
@<TRIPOS>BOND
1 5 7 ar
2 6 22 ar
3 8 12 ar
4 2 9 2
5 3 10 2
6 10 33 1
7 4 11 2
8 11 29 1
9 5 12 ar
10 6 13 ar
11 14 15 ar
12 15 20 ar
13 16 19 ar
14 17 18 ar
15 18 24 ar
16 1 19 1
17 14 19 ar
18 9 20 1
19 16 21 ar
20 20 21 ar
21 22 26 ar
22 17 23 ar
23 24 27 ar
24 13 25 ar
25 25 27 ar
26 23 26 ar
27 26 27 ar
28 10 28 1
29 25 29 1
30 29 34 1
31 9 30 1
32 30 36 1
33 7 31 ar
34 8 31 ar
35 28 32 1
36 30 33 1
37 34 37 1
38 31 35 1
39 36 38 1
40 35 37 1
41 11 38 1
42 21 38 1
43 37 38 1
@<TRIPOS>SUBSTRUCTURE
1	LIG1	1	GROUP	1 C	LIG
