# created with PyMOL 3.1.3.1
@<TRIPOS>MOLECULE
predicted
21 23 1                 
SMALL
USER_CHARGES
@<TRIPOS>ATOM
1	 O23	-8.603	0.314	-21.134	O.2	1	LIG1	0.000	
2	 N24	-6.060	-0.678	-17.866	N.2	1	LIG1	0.000	
3	 C25	-8.392	-0.727	-21.722	C.2	1	LIG1	0.000	
4	 C26	-6.772	-1.227	-18.867	C.2	1	LIG1	0.000	
5	 C27	-3.060	1.242	-20.982	C.2	1	LIG1	0.000	
6	 C28	-3.768	0.713	-22.019	C.2	1	LIG1	0.000	
7	 C29	-4.995	0.010	-18.102	C.2	1	LIG1	0.000	
8	 C30	-3.448	1.017	-19.676	C.2	1	LIG1	0.000	
9	 C31	-4.885	-0.021	-21.798	C.2	1	LIG1	0.000	
10	 C32	-6.439	-1.052	-20.176	C.2	1	LIG1	0.000	
11	 C33	-4.568	0.264	-19.410	C.2	1	LIG1	0.000	
12	 C34	-5.299	-0.280	-20.492	C.2	1	LIG1	0.000	
13	 N35	-9.128	-1.053	-22.814	N.pl3	1	LIG1	0.000	
14	 C36	-7.313	-1.661	-21.242	C.3	1	LIG1	0.000	
15	 C37	-9.045	-2.293	-23.525	C.3	1	LIG1	0.000	
16	 C38	-9.889	0.988	-23.923	C.3	1	LIG1	0.000	
17	 C39	-12.846	-2.879	-23.578	C.3	1	LIG1	0.000	
18	 C40	-10.366	-3.014	-23.351	C.3	1	LIG1	0.000	
19	 C41	-11.495	-0.857	-23.150	C.3	1	LIG1	0.000	
20	 C42	-10.216	-0.221	-23.306	C.3	1	LIG1	0.000	
21	 C43	-11.524	-2.187	-23.820	C.3	1	LIG1	0.000	
@<TRIPOS>BOND
1 2 7 ar
2 1 3 2
3 3 14 1
4 2 4 ar
5 5 6 ar
6 6 9 ar
7 7 11 ar
8 5 8 ar
9 9 12 ar
10 4 10 ar
11 10 12 ar
12 8 11 ar
13 11 12 ar
14 3 13 1
15 13 20 1
16 10 14 1
17 13 15 1
18 17 21 1
19 15 18 1
20 16 20 1
21 19 20 1
22 18 21 1
23 19 21 1
@<TRIPOS>SUBSTRUCTURE
1	LIG1	1	GROUP	1 C	LIG
