# created with PyMOL 3.1.3.1
@<TRIPOS>MOLECULE
predicted
39 44 1                 
SMALL
USER_CHARGES
@<TRIPOS>ATOM
1	CL31	13.675	-1.900	21.980	Cl	1	LIG1	0.000	
2	 O29	10.444	3.679	23.633	O.2	1	LIG1	0.000	
3	 O30	8.727	1.685	20.855	O.2	1	LIG1	0.000	
4	 N32	4.668	-5.334	22.660	N.2	1	LIG1	0.000	
5	 N33	7.034	-5.240	22.551	N.2	1	LIG1	0.000	
6	 N34	5.786	-3.658	23.862	N.2	1	LIG1	0.000	
7	 N35	6.279	0.158	17.410	N.2	1	LIG1	0.000	
8	 C36	10.038	2.524	23.552	C.2	1	LIG1	0.000	
9	 C37	8.385	0.617	21.365	C.2	1	LIG1	0.000	
10	 C38	5.880	-5.821	22.204	C.2	1	LIG1	0.000	
11	 C39	4.667	-4.276	23.517	C.2	1	LIG1	0.000	
12	 C40	6.987	-4.148	23.396	C.2	1	LIG1	0.000	
13	 C41	7.012	-0.191	18.465	C.2	1	LIG1	0.000	
14	 C42	13.102	0.562	22.769	C.2	1	LIG1	0.000	
15	 C43	12.279	1.599	23.113	C.2	1	LIG1	0.000	
16	 C44	11.200	-0.824	22.343	C.2	1	LIG1	0.000	
17	 C45	2.976	2.099	20.299	C.2	1	LIG1	0.000	
18	 C46	3.716	1.762	21.419	C.2	1	LIG1	0.000	
19	 C47	12.567	-0.643	22.376	C.2	1	LIG1	0.000	
20	 C48	10.925	1.440	23.133	C.2	1	LIG1	0.000	
21	 C49	10.373	0.208	22.778	C.2	1	LIG1	0.000	
22	 C50	5.116	0.766	17.579	C.2	1	LIG1	0.000	
23	 C51	3.435	1.768	19.021	C.2	1	LIG1	0.000	
24	 C52	4.901	1.101	21.279	C.2	1	LIG1	0.000	
25	 C53	6.632	0.108	19.781	C.2	1	LIG1	0.000	
26	 C54	4.630	1.110	18.851	C.2	1	LIG1	0.000	
27	 C55	5.378	0.774	20.000	C.2	1	LIG1	0.000	
28	 N56	8.200	-3.532	23.732	N.pl3	1	LIG1	0.000	
29	 N57	7.435	-0.207	20.866	N.pl3	1	LIG1	0.000	
30	 N58	8.694	2.263	23.767	N.pl3	1	LIG1	0.000	
31	 C59	7.805	3.296	24.133	C.3	1	LIG1	0.000	
32	 C60	8.333	-2.074	23.919	C.3	1	LIG1	0.000	
33	 C61	7.352	-1.411	21.615	C.3	1	LIG1	0.000	
34	 C62	8.214	0.911	23.806	C.3	1	LIG1	0.000	
35	 C63	5.960	5.539	21.783	C.3	1	LIG1	0.000	
36	 C64	7.309	3.905	22.817	C.3	1	LIG1	0.000	
37	 C65	8.400	-1.348	22.678	C.3	1	LIG1	0.000	
38	 C66	8.873	0.084	22.701	C.3	1	LIG1	0.000	
39	 N67	6.423	4.950	22.985	N.3	1	LIG1	0.000	
@<TRIPOS>BOND
1 4 11 ar
2 5 10 ar
3 7 22 ar
4 2 8 2
5 3 9 2
6 9 29 1
7 4 10 ar
8 6 11 ar
9 5 12 ar
10 6 12 ar
11 7 13 ar
12 14 15 ar
13 15 20 ar
14 16 19 ar
15 17 18 ar
16 18 24 ar
17 1 19 1
18 14 19 ar
19 8 20 1
20 16 21 ar
21 20 21 ar
22 22 26 ar
23 17 23 ar
24 24 27 ar
25 13 25 ar
26 25 27 ar
27 23 26 ar
28 26 27 ar
29 12 28 1
30 25 29 1
31 29 33 1
32 8 30 1
33 30 34 1
34 30 31 1
35 28 32 1
36 33 37 1
37 34 38 1
38 35 39 1
39 31 36 1
40 32 37 1
41 9 38 1
42 21 38 1
43 37 38 1
44 36 39 1
@<TRIPOS>SUBSTRUCTURE
1	LIG1	1	GROUP	1 C	LIG
