# created with PyMOL 3.1.3.1
@<TRIPOS>MOLECULE
predicted
21 23 1                 
SMALL
USER_CHARGES
@<TRIPOS>ATOM
1	 O23	-8.149	0.558	-21.067	O.2	1	LIG1	0.000	
2	 N24	-5.926	-0.501	-17.638	N.2	1	LIG1	0.000	
3	 C25	-7.994	-0.516	-21.593	C.2	1	LIG1	0.000	
4	 C26	-6.587	-1.035	-18.662	C.2	1	LIG1	0.000	
5	 C27	-2.740	1.357	-20.611	C.2	1	LIG1	0.000	
6	 C28	-3.398	0.835	-21.674	C.2	1	LIG1	0.000	
7	 C29	-4.848	0.181	-17.827	C.2	1	LIG1	0.000	
8	 C30	-3.209	1.161	-19.329	C.2	1	LIG1	0.000	
9	 C31	-4.532	0.124	-21.506	C.2	1	LIG1	0.000	
10	 C32	-6.181	-0.883	-19.935	C.2	1	LIG1	0.000	
11	 C33	-4.348	0.423	-19.107	C.2	1	LIG1	0.000	
12	 C34	-5.024	-0.113	-20.224	C.2	1	LIG1	0.000	
13	 N35	-8.724	-0.795	-22.696	N.pl3	1	LIG1	0.000	
14	 C36	-6.998	-1.492	-21.065	C.3	1	LIG1	0.000	
15	 C37	-13.097	-2.979	-24.461	C.3	1	LIG1	0.000	
16	 C38	-9.550	0.243	-23.323	C.3	1	LIG1	0.000	
17	 C39	-8.789	-2.099	-23.277	C.3	1	LIG1	0.000	
18	 C40	-12.635	-1.999	-23.461	C.3	1	LIG1	0.000	
19	 C41	-10.968	-0.167	-23.155	C.3	1	LIG1	0.000	
20	 C42	-10.226	-2.578	-23.071	C.3	1	LIG1	0.000	
21	 C43	-11.191	-1.556	-23.696	C.3	1	LIG1	0.000	
@<TRIPOS>BOND
1 2 7 ar
2 1 3 2
3 3 14 1
4 2 4 ar
5 5 6 ar
6 6 9 ar
7 7 11 ar
8 5 8 ar
9 9 12 ar
10 4 10 ar
11 10 12 ar
12 8 11 ar
13 11 12 ar
14 3 13 1
15 13 17 1
16 10 14 1
17 15 18 1
18 13 16 1
19 17 20 1
20 18 21 1
21 16 19 1
22 19 21 1
23 20 21 1
@<TRIPOS>SUBSTRUCTURE
1	LIG1	1	GROUP	1 C	LIG
