# created with PyMOL 3.1.3.1
@<TRIPOS>MOLECULE
predicted
36 41 1                 
SMALL
USER_CHARGES
@<TRIPOS>ATOM
1	 O23	-10.672	2.108	-24.543	O.2	1	LIG1	0.000	
2	 O24	-8.603	0.489	-21.517	O.2	1	LIG1	0.000	
3	 O25	-7.856	5.966	-22.646	O.2	1	LIG1	0.000	
4	 N27	-6.155	-0.558	-17.978	N.2	1	LIG1	0.000	
5	 N28	-6.368	2.344	-23.509	N.2	1	LIG1	0.000	
6	 C29	-10.153	0.996	-24.305	C.2	1	LIG1	0.000	
7	 C30	-8.192	-0.576	-21.945	C.2	1	LIG1	0.000	
8	 C31	-6.837	-1.010	-19.012	C.2	1	LIG1	0.000	
9	 C32	-7.449	2.783	-24.176	C.2	1	LIG1	0.000	
10	 C33	-13.023	-1.007	-23.009	C.2	1	LIG1	0.000	
11	 C34	-12.307	0.005	-23.577	C.2	1	LIG1	0.000	
12	 C35	-10.976	-2.225	-22.506	C.2	1	LIG1	0.000	
13	 C36	-2.737	1.098	-20.939	C.2	1	LIG1	0.000	
14	 C37	-3.406	0.597	-22.033	C.2	1	LIG1	0.000	
15	 C38	-12.375	-2.124	-22.469	C.2	1	LIG1	0.000	
16	 C39	-10.918	-0.090	-23.652	C.2	1	LIG1	0.000	
17	 C40	-10.246	-1.240	-23.173	C.2	1	LIG1	0.000	
18	 C41	-8.012	4.015	-23.920	C.2	1	LIG1	0.000	
19	 C42	-4.983	0.074	-18.162	C.2	1	LIG1	0.000	
20	 C43	-3.250	0.924	-19.662	C.2	1	LIG1	0.000	
21	 C44	-4.595	-0.043	-21.856	C.2	1	LIG1	0.000	
22	 C45	-6.397	-0.846	-20.328	C.2	1	LIG1	0.000	
23	 C46	-5.794	3.133	-22.602	C.2	1	LIG1	0.000	
24	 C47	-7.385	4.856	-22.924	C.2	1	LIG1	0.000	
25	 C48	-4.456	0.276	-19.453	C.2	1	LIG1	0.000	
26	 C49	-5.154	-0.201	-20.575	C.2	1	LIG1	0.000	
27	 N50	-7.170	-1.281	-21.402	N.pl3	1	LIG1	0.000	
28	 N51	-8.814	0.804	-24.579	N.pl3	1	LIG1	0.000	
29	 N52	-6.272	4.389	-22.309	N.2	1	LIG1	0.000	
30	 C53	-8.068	1.836	-25.266	C.3	1	LIG1	0.000	
31	 C54	-8.128	-3.490	-24.216	C.3	1	LIG1	0.000	
32	 C55	-7.010	-2.547	-22.041	C.3	1	LIG1	0.000	
33	 C56	-8.197	-0.522	-24.443	C.3	1	LIG1	0.000	
34	 C57	-8.155	-2.644	-23.015	C.3	1	LIG1	0.000	
35	 C58	-8.745	-1.266	-23.184	C.3	1	LIG1	0.000	
36	 F26	-13.097	-3.093	-21.923	 F	1	LIG1	0.000	
@<TRIPOS>BOND
1 4 19 ar
2 1 6 2
3 6 16 1
4 2 7 2
5 7 35 1
6 4 8 ar
7 5 9 ar
8 9 18 ar
9 10 15 ar
10 10 11 ar
11 12 17 ar
12 13 14 ar
13 14 21 ar
14 12 15 ar
15 15 36 1
16 11 16 ar
17 16 17 ar
18 18 24 ar
19 19 25 ar
20 13 20 ar
21 21 26 ar
22 8 22 ar
23 22 26 ar
24 5 23 ar
25 3 24 2
26 24 29 ar
27 20 25 ar
28 25 26 ar
29 7 27 1
30 22 27 1
31 6 28 1
32 28 30 1
33 23 29 ar
34 9 30 1
35 31 34 1
36 27 32 1
37 28 33 1
38 32 34 1
39 34 35 1
40 17 35 1
41 33 35 1
@<TRIPOS>SUBSTRUCTURE
1	LIG1	1	GROUP	1 C	LIG
