# created with PyMOL 3.1.3.1
@<TRIPOS>MOLECULE
predicted
22 24 1                 
SMALL
USER_CHARGES
@<TRIPOS>ATOM
1	CL17	13.723	-1.473	25.006	Cl	1	LIG1	0.000	
2	 O16	8.489	1.172	20.501	O.2	1	LIG1	0.000	
3	 N18	6.050	0.335	17.145	N.2	1	LIG1	0.000	
4	 C19	8.119	0.171	21.084	C.2	1	LIG1	0.000	
5	 C20	6.693	-0.241	18.132	C.2	1	LIG1	0.000	
6	 C21	12.385	-1.394	21.409	C.2	1	LIG1	0.000	
7	 C22	13.154	-1.639	22.457	C.2	1	LIG1	0.000	
8	 C23	11.206	-0.721	21.534	C.2	1	LIG1	0.000	
9	 C24	11.611	-0.483	23.797	C.2	1	LIG1	0.000	
10	 C25	2.926	2.238	20.190	C.2	1	LIG1	0.000	
11	 C26	3.577	1.686	21.218	C.2	1	LIG1	0.000	
12	 C27	12.769	-1.185	23.668	C.2	1	LIG1	0.000	
13	 C28	10.840	-0.240	22.735	C.2	1	LIG1	0.000	
14	 C29	4.979	1.035	17.370	C.2	1	LIG1	0.000	
15	 C30	3.369	2.040	18.922	C.2	1	LIG1	0.000	
16	 C31	4.692	0.937	21.017	C.2	1	LIG1	0.000	
17	 C32	6.309	-0.081	19.433	C.2	1	LIG1	0.000	
18	 C33	4.492	1.273	18.669	C.2	1	LIG1	0.000	
19	 C34	5.164	0.697	19.737	C.2	1	LIG1	0.000	
20	 N35	8.536	-0.175	22.282	N.pl3	1	LIG1	0.000	
21	 C36	7.097	-0.750	20.533	C.3	1	LIG1	0.000	
22	 C37	9.570	0.540	22.905	C.3	1	LIG1	0.000	
@<TRIPOS>BOND
1 2 4 2
2 3 14 ar
3 4 20 1
4 4 21 1
5 3 5 ar
6 6 7 ar
7 7 12 ar
8 6 8 ar
9 10 11 ar
10 11 16 ar
11 1 12 1
12 9 12 ar
13 8 13 ar
14 9 13 ar
15 14 18 ar
16 10 15 ar
17 16 19 ar
18 5 17 ar
19 17 19 ar
20 15 18 ar
21 18 19 ar
22 20 22 1
23 17 21 1
24 13 22 1
@<TRIPOS>SUBSTRUCTURE
1	LIG1	1	GROUP	1 C	LIG
