# created with PyMOL 3.1.3.1
@<TRIPOS>MOLECULE
predicted
22 25 1                 
SMALL
USER_CHARGES
@<TRIPOS>ATOM
1	 O17	-8.635	0.511	-20.937	O.2	1	LIG1	0.000	
2	 O18	-6.473	-3.376	-21.781	O.2	1	LIG1	0.000	
3	 N19	-5.987	-0.628	-17.757	N.2	1	LIG1	0.000	
4	 C20	-6.776	-1.049	-18.752	C.2	1	LIG1	0.000	
5	 C21	-2.705	0.899	-20.881	C.2	1	LIG1	0.000	
6	 C22	-3.454	0.428	-21.922	C.2	1	LIG1	0.000	
7	 C23	-4.804	-0.062	-18.002	C.2	1	LIG1	0.000	
8	 C24	-3.144	0.758	-19.592	C.2	1	LIG1	0.000	
9	 C25	-4.643	-0.191	-21.711	C.2	1	LIG1	0.000	
10	 C26	-6.359	-1.025	-20.075	C.2	1	LIG1	0.000	
11	 C27	-7.293	-2.471	-21.925	C.2	1	LIG1	0.000	
12	 C28	-8.348	-2.336	-22.932	C.3	1	LIG1	0.000	
13	 C29	-8.369	-0.562	-21.486	C.2	1	LIG1	0.000	
14	 C30	-4.340	0.117	-19.321	C.2	1	LIG1	0.000	
15	 C31	-5.125	-0.353	-20.387	C.2	1	LIG1	0.000	
16	 N32	-7.281	-1.357	-21.128	N.pl3	1	LIG1	0.000	
17	 N33	-8.985	-1.121	-22.506	N.pl3	1	LIG1	0.000	
18	 C34	-9.285	-3.425	-23.093	C.3	1	LIG1	0.000	
19	 C35	-12.474	-1.335	-23.790	C.3	1	LIG1	0.000	
20	 C36	-10.197	-0.644	-23.138	C.3	1	LIG1	0.000	
21	 C37	-10.560	-2.989	-23.842	C.3	1	LIG1	0.000	
22	 C38	-11.212	-1.802	-23.122	C.3	1	LIG1	0.000	
@<TRIPOS>BOND
1 3 7 ar
2 3 4 ar
3 5 6 ar
4 6 9 ar
5 7 14 ar
6 5 8 ar
7 9 15 ar
8 4 10 ar
9 10 15 ar
10 2 11 2
11 11 16 1
12 11 12 1
13 12 17 1
14 1 13 2
15 13 17 1
16 8 14 ar
17 14 15 ar
18 10 16 1
19 13 16 1
20 17 20 1
21 12 18 1
22 19 22 1
23 18 21 1
24 20 22 1
25 21 22 1
@<TRIPOS>SUBSTRUCTURE
1	LIG1	1	GROUP	1 C	LIG
