# created with PyMOL 3.1.3.1
@<TRIPOS>MOLECULE
predicted
41 46 1                 
SMALL
USER_CHARGES
@<TRIPOS>ATOM
1	CL32	-13.281	-3.130	-21.804	Cl	1	LIG1	0.000	
2	 O29	-10.811	2.450	-24.406	O.2	1	LIG1	0.000	
3	 O30	-5.935	2.355	-24.522	O.2	1	LIG1	0.000	
4	 O31	-8.639	0.768	-21.456	O.2	1	LIG1	0.000	
5	 N33	-7.173	-6.255	-27.833	N.2	1	LIG1	0.000	
6	 N34	-8.319	-4.988	-26.213	N.2	1	LIG1	0.000	
7	 N35	-6.223	-0.596	-17.935	N.2	1	LIG1	0.000	
8	 C36	-10.257	1.347	-24.229	C.2	1	LIG1	0.000	
9	 C37	-7.046	2.694	-24.219	C.2	1	LIG1	0.000	
10	 C38	-8.243	-0.287	-21.912	C.2	1	LIG1	0.000	
11	 C39	-8.299	-5.740	-27.291	C.2	1	LIG1	0.000	
12	 C40	-6.002	-5.979	-27.246	C.2	1	LIG1	0.000	
13	 C41	-6.918	-0.983	-18.989	C.2	1	LIG1	0.000	
14	 C42	-7.162	-4.688	-25.630	C.2	1	LIG1	0.000	
15	 C43	-5.962	-5.193	-26.100	C.2	1	LIG1	0.000	
16	 C44	-13.044	-0.754	-23.001	C.2	1	LIG1	0.000	
17	 C45	-12.361	0.276	-23.554	C.2	1	LIG1	0.000	
18	 C46	-10.965	-1.915	-22.527	C.2	1	LIG1	0.000	
19	 C47	-2.854	1.276	-20.830	C.2	1	LIG1	0.000	
20	 C48	-3.548	0.877	-21.953	C.2	1	LIG1	0.000	
21	 C49	-12.346	-1.850	-22.481	C.2	1	LIG1	0.000	
22	 C50	-10.983	0.233	-23.624	C.2	1	LIG1	0.000	
23	 C51	-10.278	-0.907	-23.163	C.2	1	LIG1	0.000	
24	 C52	-5.059	0.035	-18.095	C.2	1	LIG1	0.000	
25	 C53	-3.353	1.002	-19.560	C.2	1	LIG1	0.000	
26	 C54	-4.730	0.218	-21.813	C.2	1	LIG1	0.000	
27	 C55	-6.486	-0.712	-20.301	C.2	1	LIG1	0.000	
28	 C56	-4.539	0.338	-19.383	C.2	1	LIG1	0.000	
29	 C57	-5.245	-0.052	-20.537	C.2	1	LIG1	0.000	
30	 N58	-7.299	3.326	-23.061	N.pl3	1	LIG1	0.000	
31	 N59	-7.161	-3.886	-24.562	N.pl3	1	LIG1	0.000	
32	 N60	-7.268	-1.065	-21.378	N.pl3	1	LIG1	0.000	
33	 N61	-8.909	1.218	-24.487	N.pl3	1	LIG1	0.000	
34	 C62	-9.602	-6.027	-27.942	C.3	1	LIG1	0.000	
35	 C63	-6.261	3.720	-22.178	C.3	1	LIG1	0.000	
36	 C64	-8.212	2.318	-25.087	C.3	1	LIG1	0.000	
37	 C65	-8.285	-3.060	-24.229	C.3	1	LIG1	0.000	
38	 C66	-7.153	-2.291	-22.056	C.3	1	LIG1	0.000	
39	 C67	-8.283	-0.069	-24.413	C.3	1	LIG1	0.000	
40	 C68	-8.156	-2.264	-23.126	C.3	1	LIG1	0.000	
41	 C69	-8.780	-0.907	-23.184	C.3	1	LIG1	0.000	
@<TRIPOS>BOND
1 5 11 ar
2 7 24 ar
3 2 8 2
4 3 9 2
5 9 36 1
6 4 10 2
7 10 32 1
8 6 11 ar
9 11 34 1
10 5 12 ar
11 7 13 ar
12 6 14 ar
13 14 15 ar
14 12 15 ar
15 16 17 ar
16 17 22 ar
17 18 21 ar
18 19 20 ar
19 20 26 ar
20 1 21 1
21 16 21 ar
22 8 22 1
23 18 23 ar
24 22 23 ar
25 24 28 ar
26 19 25 ar
27 26 29 ar
28 13 27 ar
29 27 29 ar
30 25 28 ar
31 28 29 ar
32 9 30 1
33 14 31 1
34 27 32 1
35 32 38 1
36 8 33 1
37 33 39 1
38 30 35 1
39 33 36 1
40 31 37 1
41 38 40 1
42 39 41 1
43 37 40 1
44 10 41 1
45 23 41 1
46 40 41 1
@<TRIPOS>SUBSTRUCTURE
1	LIG1	1	GROUP	1 C	LIG
