# created with PyMOL 3.1.3.1
@<TRIPOS>MOLECULE
predicted
22 24 1                 
SMALL
USER_CHARGES
@<TRIPOS>ATOM
1	 O25	-8.432	0.485	-21.358	O.2	1	LIG1	0.000	
2	 N26	-6.091	-0.516	-17.900	N.2	1	LIG1	0.000	
3	 C27	-8.236	-0.595	-21.870	C.2	1	LIG1	0.000	
4	 C28	-6.761	-1.069	-18.925	C.2	1	LIG1	0.000	
5	 C29	-2.884	1.306	-20.890	C.2	1	LIG1	0.000	
6	 C30	-3.547	0.759	-21.952	C.2	1	LIG1	0.000	
7	 C31	-4.998	0.169	-18.083	C.2	1	LIG1	0.000	
8	 C32	-3.351	1.128	-19.599	C.2	1	LIG1	0.000	
9	 C33	-4.694	0.046	-21.783	C.2	1	LIG1	0.000	
10	 C34	-6.362	-0.914	-20.223	C.2	1	LIG1	0.000	
11	 C35	-4.500	0.391	-19.380	C.2	1	LIG1	0.000	
12	 C36	-5.191	-0.167	-20.499	C.2	1	LIG1	0.000	
13	 N37	-8.966	-0.963	-22.978	N.pl3	1	LIG1	0.000	
14	 C38	-7.189	-1.525	-21.301	C.3	1	LIG1	0.000	
15	 C39	-8.300	-2.826	-24.411	C.3	1	LIG1	0.000	
16	 C40	-9.299	1.245	-23.996	C.3	1	LIG1	0.000	
17	 C41	-12.952	-2.201	-23.326	C.3	1	LIG1	0.000	
18	 C42	-10.526	-2.758	-23.121	C.3	1	LIG1	0.000	
19	 C43	-11.250	-0.366	-23.363	C.3	1	LIG1	0.000	
20	 C44	-9.134	-2.353	-23.316	C.3	1	LIG1	0.000	
21	 C45	-9.843	-0.062	-23.697	C.3	1	LIG1	0.000	
22	 C46	-11.549	-1.801	-23.720	C.3	1	LIG1	0.000	
@<TRIPOS>BOND
1 2 7 ar
2 1 3 2
3 3 14 1
4 2 4 ar
5 5 6 ar
6 6 9 ar
7 7 11 ar
8 5 8 ar
9 9 12 ar
10 4 10 ar
11 10 12 ar
12 8 11 ar
13 11 12 ar
14 3 13 1
15 13 20 1
16 10 14 1
17 17 22 1
18 19 21 1
19 15 20 1
20 18 20 1
21 13 21 1
22 16 21 1
23 18 22 1
24 19 22 1
@<TRIPOS>SUBSTRUCTURE
1	LIG1	1	GROUP	1 C	LIG
