# created with PyMOL 3.1.3.1
@<TRIPOS>MOLECULE
predicted
39 43 1                 
SMALL
USER_CHARGES
@<TRIPOS>ATOM
1	 O29	-10.657	2.331	-24.343	O.2	1	LIG1	0.000	
2	 O30	-5.804	2.284	-24.377	O.2	1	LIG1	0.000	
3	 O31	-8.561	0.670	-21.425	O.2	1	LIG1	0.000	
4	 O32	-7.755	-5.624	-23.316	O.2	1	LIG1	0.000	
5	 O33	-5.903	-4.464	-24.307	O.2	1	LIG1	0.000	
6	 N35	-6.157	-0.586	-17.871	N.2	1	LIG1	0.000	
7	 C36	-10.128	1.211	-24.173	C.2	1	LIG1	0.000	
8	 C37	-6.930	2.557	-24.115	C.2	1	LIG1	0.000	
9	 C38	-8.157	-0.405	-21.880	C.2	1	LIG1	0.000	
10	 C39	-6.832	-1.004	-18.936	C.2	1	LIG1	0.000	
11	 C40	-12.937	-0.864	-22.914	C.2	1	LIG1	0.000	
12	 C41	-12.241	0.180	-23.462	C.2	1	LIG1	0.000	
13	 C42	-10.898	-2.084	-22.502	C.2	1	LIG1	0.000	
14	 C43	-2.776	1.269	-20.757	C.2	1	LIG1	0.000	
15	 C44	-3.447	0.822	-21.879	C.2	1	LIG1	0.000	
16	 C45	-12.276	-1.996	-22.421	C.2	1	LIG1	0.000	
17	 C46	-10.870	0.106	-23.573	C.2	1	LIG1	0.000	
18	 C47	-10.190	-1.057	-23.143	C.2	1	LIG1	0.000	
19	 C48	-4.996	0.064	-18.033	C.2	1	LIG1	0.000	
20	 C49	-3.288	1.018	-19.482	C.2	1	LIG1	0.000	
21	 C50	-4.622	0.143	-21.758	C.2	1	LIG1	0.000	
22	 C51	-6.377	-0.785	-20.245	C.2	1	LIG1	0.000	
23	 C52	-4.465	0.339	-19.316	C.2	1	LIG1	0.000	
24	 C53	-5.154	-0.101	-20.479	C.2	1	LIG1	0.000	
25	 N54	-7.274	3.164	-22.972	N.pl3	1	LIG1	0.000	
26	 N55	-7.171	-1.170	-21.345	N.pl3	1	LIG1	0.000	
27	 N56	-8.792	1.048	-24.458	N.pl3	1	LIG1	0.000	
28	 N57	-7.645	-5.441	-25.896	N.3	1	LIG1	0.000	
29	 C58	-6.294	3.608	-22.040	C.3	1	LIG1	0.000	
30	 C59	-7.103	-4.770	-27.068	C.3	1	LIG1	0.000	
31	 C60	-8.873	-6.164	-26.053	C.3	1	LIG1	0.000	
32	 C61	-8.044	2.142	-25.041	C.3	1	LIG1	0.000	
33	 C62	-7.048	-2.412	-22.057	C.3	1	LIG1	0.000	
34	 C63	-8.176	-0.261	-24.390	C.3	1	LIG1	0.000	
35	 C64	-8.229	-3.220	-24.351	C.3	1	LIG1	0.000	
36	 C65	-8.077	-2.446	-23.090	C.3	1	LIG1	0.000	
37	 C66	-8.689	-1.059	-23.154	C.3	1	LIG1	0.000	
38	 S67	-7.347	-4.744	-24.433	S.O2	1	LIG1	0.000	
39	 F34	-12.992	-2.970	-21.878	 F	1	LIG1	0.000	
@<TRIPOS>BOND
1 6 19 ar
2 1 7 2
3 2 8 2
4 8 32 1
5 3 9 2
6 9 26 1
7 6 10 ar
8 11 12 ar
9 12 17 ar
10 13 16 ar
11 14 15 ar
12 15 21 ar
13 11 16 ar
14 16 39 1
15 7 17 1
16 13 18 ar
17 17 18 ar
18 19 23 ar
19 14 20 ar
20 21 24 ar
21 10 22 ar
22 22 24 ar
23 20 23 ar
24 23 24 ar
25 8 25 1
26 22 26 1
27 26 33 1
28 7 27 1
29 27 34 1
30 28 30 1
31 28 31 1
32 25 29 1
33 27 32 1
34 33 36 1
35 34 37 1
36 35 38 1
37 35 36 1
38 9 37 1
39 18 37 1
40 36 37 1
41 4 38 2
42 5 38 2
43 28 38 1
@<TRIPOS>SUBSTRUCTURE
1	LIG1	1	GROUP	1 C	LIG
