# created with PyMOL 3.1.3.1
@<TRIPOS>MOLECULE
predicted
43 49 1                 
SMALL
USER_CHARGES
@<TRIPOS>ATOM
1	CL36	-13.155	-3.392	-22.042	Cl	1	LIG1	0.000	
2	 O34	-10.764	2.305	-24.446	O.2	1	LIG1	0.000	
3	 O35	-8.635	0.612	-21.454	O.2	1	LIG1	0.000	
4	 N37	-7.423	-5.070	-26.721	N.2	1	LIG1	0.000	
5	 N38	-8.635	-6.080	-24.963	N.2	1	LIG1	0.000	
6	 N39	-6.123	-0.611	-17.978	N.2	1	LIG1	0.000	
7	 O40	-6.268	6.745	-22.697	O.3	1	LIG1	0.000	
8	 C41	-10.181	1.217	-24.227	C.2	1	LIG1	0.000	
9	 C42	-8.189	-0.420	-21.912	C.2	1	LIG1	0.000	
10	 C43	-7.758	-5.155	-25.422	C.2	1	LIG1	0.000	
11	 C44	-8.005	-5.860	-27.586	C.2	1	LIG1	0.000	
12	 C45	-9.237	-6.853	-25.824	C.2	1	LIG1	0.000	
13	 C46	-6.806	-1.040	-19.034	C.2	1	LIG1	0.000	
14	 C47	-8.969	-6.773	-27.196	C.2	1	LIG1	0.000	
15	 C48	-12.957	-1.012	-23.189	C.2	1	LIG1	0.000	
16	 C49	-12.280	0.051	-23.685	C.2	1	LIG1	0.000	
17	 C50	-10.866	-2.121	-22.671	C.2	1	LIG1	0.000	
18	 C51	-2.902	1.504	-20.906	C.2	1	LIG1	0.000	
19	 C52	-3.596	1.078	-22.026	C.2	1	LIG1	0.000	
20	 C53	-12.262	-2.099	-22.682	C.2	1	LIG1	0.000	
21	 C54	-10.892	0.044	-23.705	C.2	1	LIG1	0.000	
22	 C55	-10.177	-1.077	-23.253	C.2	1	LIG1	0.000	
23	 C56	-4.991	0.094	-18.153	C.2	1	LIG1	0.000	
24	 C57	-3.360	1.176	-19.626	C.2	1	LIG1	0.000	
25	 C58	-4.716	0.334	-21.865	C.2	1	LIG1	0.000	
26	 C59	-6.394	-0.746	-20.337	C.2	1	LIG1	0.000	
27	 C60	-4.506	0.431	-19.438	C.2	1	LIG1	0.000	
28	 C61	-5.201	0.005	-20.581	C.2	1	LIG1	0.000	
29	 N62	-7.195	-4.267	-24.516	N.pl3	1	LIG1	0.000	
30	 N63	-7.164	-1.154	-21.408	N.pl3	1	LIG1	0.000	
31	 N64	-8.809	1.145	-24.413	N.pl3	1	LIG1	0.000	
32	 C65	-7.326	6.581	-23.744	C.3	1	LIG1	0.000	
33	 C66	-5.171	5.750	-22.988	C.3	1	LIG1	0.000	
34	 C67	-8.080	2.293	-24.839	C.3	1	LIG1	0.000	
35	 C68	-7.689	-2.917	-24.502	C.3	1	LIG1	0.000	
36	 C69	-6.953	-2.355	-22.123	C.3	1	LIG1	0.000	
37	 C70	-8.147	-0.118	-24.378	C.3	1	LIG1	0.000	
38	 C71	-7.960	5.215	-23.550	C.3	1	LIG1	0.000	
39	 C72	-5.786	4.388	-22.755	C.3	1	LIG1	0.000	
40	 C73	-7.451	2.869	-23.558	C.3	1	LIG1	0.000	
41	 C74	-8.008	-2.387	-23.208	C.3	1	LIG1	0.000	
42	 C75	-8.661	-1.028	-23.230	C.3	1	LIG1	0.000	
43	 N76	-6.903	4.172	-23.749	N.3	1	LIG1	0.000	
@<TRIPOS>BOND
1 2 8 2
2 4 11 ar
3 6 23 ar
4 7 33 1
5 8 21 1
6 8 31 1
7 3 9 2
8 9 30 1
9 4 10 ar
10 5 10 ar
11 11 14 ar
12 5 12 ar
13 6 13 ar
14 12 14 ar
15 15 20 ar
16 15 16 ar
17 17 22 ar
18 18 19 ar
19 19 25 ar
20 1 20 1
21 17 20 ar
22 16 21 ar
23 21 22 ar
24 22 42 1
25 23 27 ar
26 18 24 ar
27 25 28 ar
28 13 26 ar
29 26 28 ar
30 24 27 ar
31 27 28 ar
32 10 29 1
33 26 30 1
34 30 36 1
35 31 34 1
36 7 32 1
37 33 39 1
38 34 40 1
39 29 35 1
40 36 41 1
41 31 37 1
42 32 38 1
43 40 43 1
44 35 41 1
45 9 42 1
46 37 42 1
47 41 42 1
48 38 43 1
49 39 43 1
@<TRIPOS>SUBSTRUCTURE
1	LIG1	1	GROUP	1 C	LIG
