# created with PyMOL 3.1.3.1
@<TRIPOS>MOLECULE
predicted
39 43 1                 
SMALL
USER_CHARGES
@<TRIPOS>ATOM
1	CL33	13.648	-0.560	21.801	Cl	1	LIG1	0.000	
2	 O29	4.977	-2.817	24.674	O.2	1	LIG1	0.000	
3	 O30	8.650	0.277	21.153	O.2	1	LIG1	0.000	
4	 N34	6.355	0.092	17.259	N.2	1	LIG1	0.000	
5	 C35	5.759	-2.444	25.493	C.2	1	LIG1	0.000	
6	 C36	8.127	-0.780	21.380	C.2	1	LIG1	0.000	
7	 C37	6.918	-0.538	18.307	C.2	1	LIG1	0.000	
8	 C38	12.624	-1.855	23.863	C.2	1	LIG1	0.000	
9	 C39	3.566	3.101	24.051	C.2	1	LIG1	0.000	
10	 C40	1.544	2.029	24.829	C.2	1	LIG1	0.000	
11	 C41	4.308	2.340	24.938	C.2	1	LIG1	0.000	
12	 C42	2.286	1.265	25.720	C.2	1	LIG1	0.000	
13	 C43	11.615	-2.392	24.590	C.2	1	LIG1	0.000	
14	 C44	11.052	-1.207	22.192	C.2	1	LIG1	0.000	
15	 C45	2.910	1.659	20.085	C.2	1	LIG1	0.000	
16	 C46	3.489	1.036	21.175	C.2	1	LIG1	0.000	
17	 C47	12.336	-1.256	22.675	C.2	1	LIG1	0.000	
18	 C48	2.159	2.959	23.971	C.2	1	LIG1	0.000	
19	 C49	3.655	1.453	25.763	C.2	1	LIG1	0.000	
20	 C50	10.284	-2.343	24.125	C.2	1	LIG1	0.000	
21	 C51	9.988	-1.708	22.924	C.2	1	LIG1	0.000	
22	 C52	5.241	0.749	17.403	C.2	1	LIG1	0.000	
23	 C53	3.472	1.575	18.842	C.2	1	LIG1	0.000	
24	 C54	4.634	0.330	21.058	C.2	1	LIG1	0.000	
25	 C55	6.426	-0.498	19.592	C.2	1	LIG1	0.000	
26	 C56	4.637	0.859	18.666	C.2	1	LIG1	0.000	
27	 C57	5.234	0.218	19.785	C.2	1	LIG1	0.000	
28	 N58	7.055	-1.218	20.674	N.pl3	1	LIG1	0.000	
29	 N59	5.580	-1.400	26.315	N.pl3	1	LIG1	0.000	
30	 C60	1.375	3.756	23.054	C.3	1	LIG1	0.000	
31	 C61	4.399	0.642	26.714	C.3	1	LIG1	0.000	
32	 C62	4.315	-0.768	26.390	C.3	1	LIG1	0.000	
33	 C63	7.049	-3.034	25.566	C.3	1	LIG1	0.000	
34	 C64	9.243	-2.963	24.966	C.3	1	LIG1	0.000	
35	 C65	7.666	-1.806	23.556	C.3	1	LIG1	0.000	
36	 C66	8.606	-1.716	22.419	C.3	1	LIG1	0.000	
37	 N67	7.907	-2.761	24.474	N.3	1	LIG1	0.000	
38	 F31	0.095	3.686	23.085	 F	1	LIG1	0.000	
39	 F32	1.922	4.512	22.238	 F	1	LIG1	0.000	
@<TRIPOS>BOND
1 2 5 2
2 4 22 ar
3 5 29 1
4 5 33 1
5 3 6 2
6 6 28 1
7 4 7 ar
8 8 17 ar
9 9 18 ar
10 10 12 ar
11 9 11 ar
12 8 13 ar
13 14 21 ar
14 15 16 ar
15 16 24 ar
16 1 17 1
17 14 17 ar
18 10 18 ar
19 18 30 1
20 11 19 ar
21 12 19 ar
22 13 20 ar
23 20 21 ar
24 21 36 1
25 22 26 ar
26 15 23 ar
27 24 27 ar
28 7 25 ar
29 25 27 ar
30 23 26 ar
31 26 27 ar
32 25 28 1
33 29 32 1
34 30 38 1
35 30 39 1
36 19 31 1
37 31 32 1
38 33 37 1
39 20 34 1
40 6 36 1
41 35 36 1
42 34 37 1
43 35 37 1
@<TRIPOS>SUBSTRUCTURE
1	LIG1	1	GROUP	1 C	LIG
