# created with PyMOL 3.1.3.1
@<TRIPOS>MOLECULE
predicted
35 39 1                 
SMALL
USER_CHARGES
@<TRIPOS>ATOM
1	CL29	13.557	-1.958	22.348	Cl	1	LIG1	0.000	
2	 O26	10.272	3.648	23.738	O.2	1	LIG1	0.000	
3	 O27	8.143	5.310	23.887	O.2	1	LIG1	0.000	
4	 O28	8.617	1.523	20.977	O.2	1	LIG1	0.000	
5	 N30	6.198	0.083	17.616	N.2	1	LIG1	0.000	
6	 O31	6.996	-2.220	24.740	O.3	1	LIG1	0.000	
7	 C32	9.846	2.496	23.691	C.2	1	LIG1	0.000	
8	 C33	7.448	4.452	23.473	C.2	1	LIG1	0.000	
9	 C34	8.237	0.506	21.537	C.2	1	LIG1	0.000	
10	 C35	6.901	-0.249	18.679	C.2	1	LIG1	0.000	
11	 C36	12.987	0.522	23.079	C.2	1	LIG1	0.000	
12	 C37	12.147	1.569	23.379	C.2	1	LIG1	0.000	
13	 C38	11.089	-0.895	22.594	C.2	1	LIG1	0.000	
14	 C39	2.796	1.993	20.460	C.2	1	LIG1	0.000	
15	 C40	3.516	1.645	21.594	C.2	1	LIG1	0.000	
16	 C41	12.464	-0.702	22.676	C.2	1	LIG1	0.000	
17	 C42	10.772	1.395	23.336	C.2	1	LIG1	0.000	
18	 C43	10.220	0.143	22.982	C.2	1	LIG1	0.000	
19	 C44	5.017	0.691	17.769	C.2	1	LIG1	0.000	
20	 C45	3.297	1.675	19.198	C.2	1	LIG1	0.000	
21	 C46	4.702	0.995	21.476	C.2	1	LIG1	0.000	
22	 C47	6.463	0.007	19.989	C.2	1	LIG1	0.000	
23	 C48	4.500	1.019	19.044	C.2	1	LIG1	0.000	
24	 C49	5.227	0.681	20.195	C.2	1	LIG1	0.000	
25	 N50	6.714	4.607	22.373	N.pl3	1	LIG1	0.000	
26	 N51	7.243	-0.300	21.066	N.pl3	1	LIG1	0.000	
27	 N52	8.464	2.217	23.880	N.pl3	1	LIG1	0.000	
28	 C53	6.956	-2.936	26.002	C.3	1	LIG1	0.000	
29	 C54	6.616	5.861	21.677	C.3	1	LIG1	0.000	
30	 C55	7.413	3.148	24.152	C.3	1	LIG1	0.000	
31	 C56	8.194	-2.091	24.174	C.3	1	LIG1	0.000	
32	 C57	7.124	-1.483	21.853	C.3	1	LIG1	0.000	
33	 C58	8.024	0.867	23.985	C.3	1	LIG1	0.000	
34	 C59	8.231	-1.409	22.860	C.3	1	LIG1	0.000	
35	 C60	8.723	0.009	22.873	C.3	1	LIG1	0.000	
@<TRIPOS>BOND
1 5 19 ar
2 6 28 1
3 2 7 2
4 3 8 2
5 8 30 1
6 4 9 2
7 9 26 1
8 5 10 ar
9 11 12 ar
10 12 17 ar
11 13 16 ar
12 14 15 ar
13 15 21 ar
14 1 16 1
15 11 16 ar
16 7 17 1
17 13 18 ar
18 17 18 ar
19 19 23 ar
20 14 20 ar
21 21 24 ar
22 10 22 ar
23 22 24 ar
24 20 23 ar
25 23 24 ar
26 8 25 1
27 22 26 1
28 26 32 1
29 7 27 1
30 27 33 1
31 25 29 1
32 27 30 1
33 6 31 1
34 32 34 1
35 33 35 1
36 31 34 1
37 9 35 1
38 18 35 1
39 34 35 1
@<TRIPOS>SUBSTRUCTURE
1	LIG1	1	GROUP	1 C	LIG
