# created with PyMOL 3.1.3.1
@<TRIPOS>MOLECULE
predicted
34 39 1                 
SMALL
USER_CHARGES
@<TRIPOS>ATOM
1	 O24	-10.699	2.712	-24.230	O.2	1	LIG1	0.000	
2	 O25	-8.631	0.852	-21.374	O.2	1	LIG1	0.000	
3	 N27	-6.146	-0.382	-17.935	N.2	1	LIG1	0.000	
4	 C28	-10.189	1.571	-24.082	C.2	1	LIG1	0.000	
5	 C29	-8.242	-0.187	-21.868	C.2	1	LIG1	0.000	
6	 C30	-6.851	-0.789	-18.975	C.2	1	LIG1	0.000	
7	 C31	-13.098	-0.465	-22.924	C.2	1	LIG1	0.000	
8	 C32	-12.359	0.576	-23.425	C.2	1	LIG1	0.000	
9	 C33	-11.062	-1.759	-22.521	C.2	1	LIG1	0.000	
10	 C34	-2.762	1.398	-20.908	C.2	1	LIG1	0.000	
11	 C35	-3.463	0.955	-22.014	C.2	1	LIG1	0.000	
12	 C36	-12.459	-1.634	-22.469	C.2	1	LIG1	0.000	
13	 C37	-10.970	0.454	-23.515	C.2	1	LIG1	0.000	
14	 C38	-10.317	-0.738	-23.123	C.2	1	LIG1	0.000	
15	 C39	-4.964	0.253	-18.129	C.2	1	LIG1	0.000	
16	 C40	-3.251	1.163	-19.625	C.2	1	LIG1	0.000	
17	 C41	-4.654	0.313	-21.841	C.2	1	LIG1	0.000	
18	 C42	-6.425	-0.572	-20.291	C.2	1	LIG1	0.000	
19	 C43	-7.111	3.020	-23.962	C.2	1	LIG1	0.000	
20	 C44	-7.447	3.432	-22.700	C.2	1	LIG1	0.000	
21	 C45	-5.352	3.784	-22.969	C.2	1	LIG1	0.000	
22	 C46	-4.455	0.511	-19.421	C.2	1	LIG1	0.000	
23	 C47	-5.179	0.084	-20.549	C.2	1	LIG1	0.000	
24	 N48	-7.221	-0.941	-21.369	N.pl3	1	LIG1	0.000	
25	 N49	-8.844	1.373	-24.388	N.pl3	1	LIG1	0.000	
26	 N50	-5.843	3.268	-24.148	N.pl3	1	LIG1	0.000	
27	 N51	-6.351	3.867	-22.075	N.2	1	LIG1	0.000	
28	 C52	-8.071	2.431	-25.005	C.3	1	LIG1	0.000	
29	 C53	-8.236	-2.972	-24.307	C.3	1	LIG1	0.000	
30	 C54	-7.093	-2.174	-22.098	C.3	1	LIG1	0.000	
31	 C55	-8.253	0.027	-24.348	C.3	1	LIG1	0.000	
32	 C56	-8.238	-2.185	-23.069	C.3	1	LIG1	0.000	
33	 C57	-8.809	-0.796	-23.143	C.3	1	LIG1	0.000	
34	 F26	-13.210	-2.619	-21.981	 F	1	LIG1	0.000	
@<TRIPOS>BOND
1 3 15 ar
2 1 4 2
3 4 13 1
4 2 5 2
5 5 33 1
6 3 6 ar
7 7 12 ar
8 7 8 ar
9 9 14 ar
10 10 11 ar
11 11 17 ar
12 9 12 ar
13 12 34 1
14 8 13 ar
15 13 14 ar
16 15 22 ar
17 10 16 ar
18 17 23 ar
19 6 18 ar
20 18 23 ar
21 19 20 ar
22 19 26 ar
23 20 27 ar
24 21 26 ar
25 16 22 ar
26 22 23 ar
27 5 24 1
28 18 24 1
29 4 25 1
30 25 28 1
31 21 27 ar
32 19 28 1
33 29 32 1
34 24 30 1
35 25 31 1
36 30 32 1
37 32 33 1
38 14 33 1
39 31 33 1
@<TRIPOS>SUBSTRUCTURE
1	LIG1	1	GROUP	1 C	LIG
