# created with PyMOL 3.1.3.1
@<TRIPOS>MOLECULE
predicted
27 32 1                 
SMALL
USER_CHARGES
@<TRIPOS>ATOM
1	CL19	13.541	-2.605	22.838	Cl	1	LIG1	0.000	
2	 O17	8.531	1.521	21.280	O.2	1	LIG1	0.000	
3	 O18	7.415	-2.858	21.618	O.2	1	LIG1	0.000	
4	 N20	6.330	-0.480	17.813	N.2	1	LIG1	0.000	
5	 C21	8.557	0.392	21.669	C.2	1	LIG1	0.000	
6	 C22	8.029	-1.806	21.804	C.2	1	LIG1	0.000	
7	 C23	7.142	-0.719	18.801	C.2	1	LIG1	0.000	
8	 C24	13.329	-4.460	26.247	C.2	1	LIG1	0.000	
9	 C25	12.008	-4.285	26.615	C.2	1	LIG1	0.000	
10	 C26	13.785	-3.942	25.075	C.2	1	LIG1	0.000	
11	 C27	11.188	-3.600	25.832	C.2	1	LIG1	0.000	
12	 C28	3.068	1.203	20.853	C.2	1	LIG1	0.000	
13	 C29	3.888	0.941	21.911	C.2	1	LIG1	0.000	
14	 C30	12.951	-3.221	24.273	C.2	1	LIG1	0.000	
15	 C31	11.626	-3.060	24.619	C.2	1	LIG1	0.000	
16	 C32	5.133	0.047	18.037	C.2	1	LIG1	0.000	
17	 C33	3.460	0.927	19.584	C.2	1	LIG1	0.000	
18	 C34	5.102	0.403	21.713	C.2	1	LIG1	0.000	
19	 C35	6.810	-0.446	20.126	C.2	1	LIG1	0.000	
20	 C36	4.700	0.361	19.342	C.2	1	LIG1	0.000	
21	 C37	5.543	0.110	20.414	C.2	1	LIG1	0.000	
22	 N38	7.754	-0.624	21.181	N.pl3	1	LIG1	0.000	
23	 N39	9.334	-0.105	22.564	N.pl3	1	LIG1	0.000	
24	 C40	9.235	-1.966	24.082	C.3	1	LIG1	0.000	
25	 C41	10.327	-2.400	22.513	C.3	1	LIG1	0.000	
26	 C42	10.786	-2.233	23.847	C.3	1	LIG1	0.000	
27	 C43	9.120	-1.538	22.720	C.3	1	LIG1	0.000	
@<TRIPOS>BOND
1 2 5 2
2 4 16 ar
3 5 22 1
4 5 23 1
5 3 6 2
6 6 22 1
7 4 7 ar
8 8 10 ar
9 8 9 ar
10 10 14 ar
11 9 11 ar
12 12 13 ar
13 13 18 ar
14 1 14 1
15 11 15 ar
16 14 15 ar
17 16 20 ar
18 12 17 ar
19 18 21 ar
20 7 19 ar
21 19 21 ar
22 17 20 ar
23 20 21 ar
24 19 22 1
25 23 27 1
26 24 25 1
27 24 26 1
28 15 26 1
29 25 26 1
30 6 27 1
31 24 27 1
32 25 27 1
@<TRIPOS>SUBSTRUCTURE
1	LIG1	1	GROUP	1 C	LIG
