# created with PyMOL 3.1.3.1
@<TRIPOS>MOLECULE
predicted
34 39 1                 
SMALL
USER_CHARGES
@<TRIPOS>ATOM
1	 O22	-10.915	2.276	-24.414	O.2	1	LIG1	0.000	
2	 O23	-8.767	0.511	-21.542	O.2	1	LIG1	0.000	
3	 N25	-7.733	3.008	-22.859	N.2	1	LIG1	0.000	
4	 N26	-6.243	-0.619	-18.108	N.2	1	LIG1	0.000	
5	 O27	-5.670	3.553	-23.179	O.2	1	LIG1	0.000	
6	 C28	-10.386	1.153	-24.258	C.2	1	LIG1	0.000	
7	 C29	-8.372	-0.533	-22.030	C.2	1	LIG1	0.000	
8	 C30	-6.644	3.537	-22.310	C.2	1	LIG1	0.000	
9	 C31	-6.952	-1.050	-19.131	C.2	1	LIG1	0.000	
10	 C32	-7.461	2.718	-24.115	C.2	1	LIG1	0.000	
11	 C33	-6.139	3.109	-24.368	C.2	1	LIG1	0.000	
12	 C34	-13.226	-0.917	-23.045	C.2	1	LIG1	0.000	
13	 C35	-12.521	0.125	-23.572	C.2	1	LIG1	0.000	
14	 C36	-11.168	-2.155	-22.639	C.2	1	LIG1	0.000	
15	 C37	-2.919	1.149	-21.138	C.2	1	LIG1	0.000	
16	 C38	-3.622	0.681	-22.222	C.2	1	LIG1	0.000	
17	 C39	-12.567	-2.062	-22.579	C.2	1	LIG1	0.000	
18	 C40	-11.133	0.042	-23.665	C.2	1	LIG1	0.000	
19	 C41	-10.444	-1.127	-23.251	C.2	1	LIG1	0.000	
20	 C42	-5.078	0.018	-18.311	C.2	1	LIG1	0.000	
21	 C43	-3.390	0.931	-19.847	C.2	1	LIG1	0.000	
22	 C44	-4.798	0.020	-22.029	C.2	1	LIG1	0.000	
23	 C45	-6.537	-0.863	-20.461	C.2	1	LIG1	0.000	
24	 C46	-4.585	0.269	-19.620	C.2	1	LIG1	0.000	
25	 C47	-5.310	-0.188	-20.733	C.2	1	LIG1	0.000	
26	 N48	-7.338	-1.259	-21.521	N.pl3	1	LIG1	0.000	
27	 N49	-9.037	0.979	-24.561	N.pl3	1	LIG1	0.000	
28	 C50	-8.285	2.047	-25.175	C.3	1	LIG1	0.000	
29	 C51	-8.290	-3.337	-24.422	C.3	1	LIG1	0.000	
30	 C52	-7.198	-2.510	-22.221	C.3	1	LIG1	0.000	
31	 C53	-8.419	-0.357	-24.513	C.3	1	LIG1	0.000	
32	 C54	-8.335	-2.546	-23.204	C.3	1	LIG1	0.000	
33	 C55	-8.935	-1.160	-23.287	C.3	1	LIG1	0.000	
34	 F24	-13.290	-3.060	-22.072	 F	1	LIG1	0.000	
@<TRIPOS>BOND
1 4 20 ar
2 5 8 ar
3 1 6 2
4 6 18 1
5 2 7 2
6 7 33 1
7 3 8 ar
8 4 9 ar
9 3 10 ar
10 10 11 ar
11 5 11 ar
12 12 17 ar
13 12 13 ar
14 14 19 ar
15 15 16 ar
16 16 22 ar
17 14 17 ar
18 17 34 1
19 13 18 ar
20 18 19 ar
21 20 24 ar
22 15 21 ar
23 22 25 ar
24 9 23 ar
25 23 25 ar
26 21 24 ar
27 24 25 ar
28 7 26 1
29 23 26 1
30 6 27 1
31 27 28 1
32 10 28 1
33 29 32 1
34 26 30 1
35 27 31 1
36 30 32 1
37 32 33 1
38 19 33 1
39 31 33 1
@<TRIPOS>SUBSTRUCTURE
1	LIG1	1	GROUP	1 C	LIG
