# created with PyMOL 3.1.3.1
@<TRIPOS>MOLECULE
predicted
40 45 1                 
SMALL
USER_CHARGES
@<TRIPOS>ATOM
1	CL37	13.413	-2.087	21.765	Cl	1	LIG1	0.000	
2	 O33	10.298	3.440	23.672	O.2	1	LIG1	0.000	
3	 O34	8.557	1.499	20.798	O.2	1	LIG1	0.000	
4	 O35	4.713	-7.215	21.673	O.2	1	LIG1	0.000	
5	 O36	5.690	-5.337	20.477	O.2	1	LIG1	0.000	
6	 N38	6.070	0.007	17.339	N.2	1	LIG1	0.000	
7	 O39	7.350	-3.426	23.570	O.3	1	LIG1	0.000	
8	 C40	9.872	2.293	23.568	C.2	1	LIG1	0.000	
9	 C41	8.181	0.449	21.298	C.2	1	LIG1	0.000	
10	 C42	6.795	-0.347	18.399	C.2	1	LIG1	0.000	
11	 C43	12.888	0.334	22.719	C.2	1	LIG1	0.000	
12	 C44	12.081	1.359	23.100	C.2	1	LIG1	0.000	
13	 C45	10.972	-1.016	22.218	C.2	1	LIG1	0.000	
14	 C46	2.733	1.906	20.216	C.2	1	LIG1	0.000	
15	 C47	3.461	1.563	21.332	C.2	1	LIG1	0.000	
16	 C48	12.344	-0.847	22.265	C.2	1	LIG1	0.000	
17	 C49	10.732	1.211	23.111	C.2	1	LIG1	0.000	
18	 C50	10.164	-0.003	22.705	C.2	1	LIG1	0.000	
19	 C51	4.897	0.612	17.505	C.2	1	LIG1	0.000	
20	 C52	3.205	1.595	18.951	C.2	1	LIG1	0.000	
21	 C53	4.659	0.914	21.210	C.2	1	LIG1	0.000	
22	 C54	6.413	-0.032	19.712	C.2	1	LIG1	0.000	
23	 C55	4.404	0.946	18.786	C.2	1	LIG1	0.000	
24	 C56	5.149	0.603	19.932	C.2	1	LIG1	0.000	
25	 N57	7.214	-0.351	20.801	N.pl3	1	LIG1	0.000	
26	 N58	8.534	2.052	23.780	N.pl3	1	LIG1	0.000	
27	 C59	6.906	-4.234	24.511	C.3	1	LIG1	0.000	
28	 C60	7.663	3.088	24.173	C.3	1	LIG1	0.000	
29	 C61	6.096	-5.339	23.903	C.3	1	LIG1	0.000	
30	 C62	7.966	-2.231	23.826	C.3	1	LIG1	0.000	
31	 C63	7.114	-1.539	21.539	C.3	1	LIG1	0.000	
32	 C64	8.019	0.729	23.759	C.3	1	LIG1	0.000	
33	 C65	5.753	5.112	21.736	C.3	1	LIG1	0.000	
34	 C66	6.928	3.477	22.909	C.2	1	LIG1	0.000	
35	 C67	6.816	-6.151	22.819	C.3	1	LIG1	0.000	
36	 C68	4.909	-4.917	23.029	C.3	1	LIG1	0.000	
37	 C69	8.167	-1.509	22.595	C.3	1	LIG1	0.000	
38	 C70	8.679	-0.097	22.637	C.3	1	LIG1	0.000	
39	 N71	6.493	4.759	22.864	N.2	1	LIG1	0.000	
40	 S72	5.433	-6.035	21.651	S.O2	1	LIG1	0.000	
@<TRIPOS>BOND
1 6 19 ar
2 7 27 1
3 2 8 2
4 3 9 2
5 9 25 1
6 6 10 ar
7 11 12 ar
8 12 17 ar
9 13 16 ar
10 14 15 ar
11 15 21 ar
12 1 16 1
13 11 16 ar
14 8 17 1
15 13 18 ar
16 17 18 ar
17 19 23 ar
18 14 20 ar
19 21 24 ar
20 10 22 ar
21 22 24 ar
22 20 23 ar
23 23 24 ar
24 22 25 1
25 25 31 1
26 8 26 1
27 26 32 1
28 27 29 1
29 26 28 1
30 29 35 1
31 29 36 1
32 7 30 1
33 31 37 1
34 32 38 1
35 33 39 1
36 28 34 1
37 35 40 1
38 30 37 1
39 9 38 1
40 18 38 1
41 37 38 1
42 34 39 2
43 4 40 2
44 5 40 2
45 36 40 1
@<TRIPOS>SUBSTRUCTURE
1	LIG1	1	GROUP	1 C	LIG
