# created with PyMOL 3.1.3.1
@<TRIPOS>MOLECULE
predicted
36 40 1                 
SMALL
USER_CHARGES
@<TRIPOS>ATOM
1	CL30	-12.307	-3.074	-21.973	Cl	1	LIG1	0.000	
2	 O28	-5.370	-6.968	-25.843	O.2	1	LIG1	0.000	
3	 O29	-8.042	0.109	-21.213	O.2	1	LIG1	0.000	
4	 N31	-5.982	-0.615	-17.716	N.2	1	LIG1	0.000	
5	 C32	-5.376	-5.915	-25.368	C.2	1	LIG1	0.000	
6	 C33	-7.426	-0.707	-21.907	C.2	1	LIG1	0.000	
7	 C34	-3.751	-6.597	-23.574	C.3	1	LIG1	0.000	
8	 C35	-4.175	-5.474	-24.523	C.3	1	LIG1	0.000	
9	 C36	-6.425	-1.207	-18.836	C.2	1	LIG1	0.000	
10	 C37	-12.295	0.074	-24.281	C.2	1	LIG1	0.000	
11	 C38	-5.031	-1.614	-25.649	C.2	1	LIG1	0.000	
12	 C39	-12.697	-1.024	-23.540	C.2	1	LIG1	0.000	
13	 C40	-5.213	-2.961	-25.902	C.2	1	LIG1	0.000	
14	 C41	-10.958	0.408	-24.345	C.2	1	LIG1	0.000	
15	 C42	-10.431	-1.385	-22.935	C.2	1	LIG1	0.000	
16	 C43	-5.840	-0.919	-24.774	C.2	1	LIG1	0.000	
17	 C44	-2.582	1.552	-20.192	C.2	1	LIG1	0.000	
18	 C45	-3.018	0.971	-21.356	C.2	1	LIG1	0.000	
19	 C46	-11.774	-1.748	-22.885	C.2	1	LIG1	0.000	
20	 C47	-6.264	-3.640	-25.289	C.2	1	LIG1	0.000	
21	 C48	-7.136	-2.930	-24.442	C.2	1	LIG1	0.000	
22	 C49	-10.006	-0.320	-23.693	C.2	1	LIG1	0.000	
23	 C50	-6.866	-1.572	-24.169	C.2	1	LIG1	0.000	
24	 C51	-4.947	0.157	-17.753	C.2	1	LIG1	0.000	
25	 C52	-3.216	1.301	-19.010	C.2	1	LIG1	0.000	
26	 C53	-4.096	0.116	-21.376	C.2	1	LIG1	0.000	
27	 C54	-5.851	-1.010	-20.067	C.2	1	LIG1	0.000	
28	 C55	-4.287	0.436	-18.969	C.2	1	LIG1	0.000	
29	 C56	-4.744	-0.162	-20.162	C.2	1	LIG1	0.000	
30	 N57	-6.422	-5.038	-25.470	N.pl3	1	LIG1	0.000	
31	 C58	-6.442	-1.665	-21.299	C.3	1	LIG1	0.000	
32	 C59	-8.241	-3.729	-23.900	C.3	1	LIG1	0.000	
33	 C60	-7.763	-5.528	-25.531	C.3	1	LIG1	0.000	
34	 C61	-8.450	-5.064	-24.220	C.3	1	LIG1	0.000	
35	 C62	-8.576	0.124	-23.827	C.3	1	LIG1	0.000	
36	 N63	-7.625	-0.776	-23.263	N.pl3	1	LIG1	0.000	
@<TRIPOS>BOND
1 4 24 ar
2 2 5 2
3 5 30 1
4 3 6 2
5 6 31 1
6 7 8 1
7 5 8 1
8 4 9 ar
9 10 12 ar
10 11 16 ar
11 12 19 ar
12 11 13 ar
13 10 14 ar
14 16 23 ar
15 17 18 ar
16 18 26 ar
17 1 19 1
18 15 19 ar
19 13 20 ar
20 20 21 ar
21 21 23 ar
22 14 22 ar
23 15 22 ar
24 23 36 1
25 24 28 ar
26 17 25 ar
27 26 29 ar
28 9 27 ar
29 27 29 ar
30 25 28 ar
31 28 29 ar
32 20 30 1
33 30 33 1
34 27 31 1
35 21 32 1
36 33 34 1
37 32 34 1
38 22 35 1
39 6 36 1
40 35 36 1
@<TRIPOS>SUBSTRUCTURE
1	LIG1	1	GROUP	1 C	LIG
