# created with PyMOL 3.1.3.1
@<TRIPOS>MOLECULE
predicted
39 44 1                 
SMALL
USER_CHARGES
@<TRIPOS>ATOM
1	CL31	-13.118	-3.017	-21.789	Cl	1	LIG1	0.000	
2	 O28	-10.604	2.536	-24.391	O.2	1	LIG1	0.000	
3	 O29	-5.787	2.697	-24.459	O.2	1	LIG1	0.000	
4	 O30	-8.487	0.755	-21.422	O.2	1	LIG1	0.000	
5	 N32	-6.089	-0.645	-17.910	N.2	1	LIG1	0.000	
6	 C33	-10.063	1.416	-24.248	C.2	1	LIG1	0.000	
7	 C34	-6.925	2.893	-24.181	C.2	1	LIG1	0.000	
8	 C35	-8.080	-0.282	-21.919	C.2	1	LIG1	0.000	
9	 C36	-6.772	-1.033	-18.991	C.2	1	LIG1	0.000	
10	 C37	-8.856	-5.846	-26.910	C.2	1	LIG1	0.000	
11	 C38	-8.528	-4.611	-27.484	C.2	1	LIG1	0.000	
12	 C39	-8.712	-6.043	-25.551	C.2	1	LIG1	0.000	
13	 C40	-12.867	-0.649	-22.988	C.2	1	LIG1	0.000	
14	 C41	-12.177	0.371	-23.553	C.2	1	LIG1	0.000	
15	 C42	-7.984	-3.608	-26.676	C.2	1	LIG1	0.000	
16	 C43	-8.208	-5.026	-24.741	C.2	1	LIG1	0.000	
17	 C44	-10.783	-1.830	-22.545	C.2	1	LIG1	0.000	
18	 C45	-2.837	1.573	-20.706	C.2	1	LIG1	0.000	
19	 C46	-3.506	1.180	-21.855	C.2	1	LIG1	0.000	
20	 C47	-12.174	-1.753	-22.477	C.2	1	LIG1	0.000	
21	 C48	-10.793	0.301	-23.647	C.2	1	LIG1	0.000	
22	 C49	-7.858	-3.797	-25.294	C.2	1	LIG1	0.000	
23	 C50	-10.104	-0.846	-23.208	C.2	1	LIG1	0.000	
24	 C51	-4.957	0.053	-18.035	C.2	1	LIG1	0.000	
25	 C52	-3.315	1.200	-19.451	C.2	1	LIG1	0.000	
26	 C53	-4.659	0.432	-21.761	C.2	1	LIG1	0.000	
27	 C54	-6.340	-0.704	-20.287	C.2	1	LIG1	0.000	
28	 C55	-4.461	0.446	-19.316	C.2	1	LIG1	0.000	
29	 C56	-5.145	0.064	-20.483	C.2	1	LIG1	0.000	
30	 N57	-7.286	3.459	-23.012	N.pl3	1	LIG1	0.000	
31	 N58	-7.101	-1.066	-21.389	N.pl3	1	LIG1	0.000	
32	 N59	-8.720	1.284	-24.500	N.pl3	1	LIG1	0.000	
33	 C60	-6.304	3.980	-22.106	C.3	1	LIG1	0.000	
34	 C61	-8.017	2.394	-25.082	C.3	1	LIG1	0.000	
35	 C62	-7.265	-2.679	-24.456	C.3	1	LIG1	0.000	
36	 C63	-6.945	-2.308	-22.128	C.3	1	LIG1	0.000	
37	 C64	-8.067	-0.014	-24.434	C.3	1	LIG1	0.000	
38	 C65	-8.009	-2.266	-23.260	C.3	1	LIG1	0.000	
39	 C66	-8.594	-0.872	-23.224	C.3	1	LIG1	0.000	
@<TRIPOS>BOND
1 5 24 ar
2 2 6 2
3 3 7 2
4 7 34 1
5 4 8 2
6 8 31 1
7 5 9 ar
8 10 12 ar
9 10 11 ar
10 12 16 ar
11 13 14 ar
12 14 21 ar
13 11 15 ar
14 17 20 ar
15 18 19 ar
16 19 26 ar
17 1 20 1
18 13 20 ar
19 6 21 1
20 15 22 ar
21 16 22 ar
22 17 23 ar
23 21 23 ar
24 24 28 ar
25 18 25 ar
26 26 29 ar
27 9 27 ar
28 27 29 ar
29 25 28 ar
30 28 29 ar
31 7 30 1
32 27 31 1
33 31 36 1
34 6 32 1
35 32 37 1
36 30 33 1
37 32 34 1
38 22 35 1
39 36 38 1
40 37 39 1
41 35 38 1
42 8 39 1
43 23 39 1
44 38 39 1
@<TRIPOS>SUBSTRUCTURE
1	LIG1	1	GROUP	1 C	LIG
