# created with PyMOL 3.1.3.1
@<TRIPOS>MOLECULE
predicted
37 41 1                 
SMALL
USER_CHARGES
@<TRIPOS>ATOM
1	CL33	-13.256	-3.202	-21.734	Cl	1	LIG1	0.000	
2	 O30	-10.555	2.279	-24.383	O.2	1	LIG1	0.000	
3	 O31	-5.714	2.020	-24.344	O.2	1	LIG1	0.000	
4	 O32	-8.494	0.561	-21.429	O.2	1	LIG1	0.000	
5	 N34	-6.145	-0.684	-17.917	N.2	1	LIG1	0.000	
6	 O35	-7.847	-4.463	-24.470	O.3	1	LIG1	0.000	
7	 C36	-10.049	1.147	-24.208	C.2	1	LIG1	0.000	
8	 C37	-6.808	2.414	-24.140	C.2	1	LIG1	0.000	
9	 C38	-8.116	-0.517	-21.891	C.2	1	LIG1	0.000	
10	 C39	-6.824	-1.100	-18.973	C.2	1	LIG1	0.000	
11	 C40	-12.925	-0.836	-22.950	C.2	1	LIG1	0.000	
12	 C41	-12.202	0.164	-23.511	C.2	1	LIG1	0.000	
13	 C42	-10.893	-2.071	-22.472	C.2	1	LIG1	0.000	
14	 C43	-2.736	1.095	-20.797	C.2	1	LIG1	0.000	
15	 C44	-3.407	0.651	-21.919	C.2	1	LIG1	0.000	
16	 C45	-12.272	-1.958	-22.409	C.2	1	LIG1	0.000	
17	 C46	-10.826	0.064	-23.591	C.2	1	LIG1	0.000	
18	 C47	-10.167	-1.099	-23.130	C.2	1	LIG1	0.000	
19	 C48	-4.976	-0.058	-18.080	C.2	1	LIG1	0.000	
20	 C49	-3.262	0.865	-19.518	C.2	1	LIG1	0.000	
21	 C50	-4.586	-0.011	-21.791	C.2	1	LIG1	0.000	
22	 C51	-6.358	-0.903	-20.278	C.2	1	LIG1	0.000	
23	 C52	-4.442	0.199	-19.362	C.2	1	LIG1	0.000	
24	 C53	-5.126	-0.235	-20.516	C.2	1	LIG1	0.000	
25	 N54	-7.098	3.126	-23.042	N.pl3	1	LIG1	0.000	
26	 N55	-7.134	-1.283	-21.358	N.pl3	1	LIG1	0.000	
27	 N56	-8.697	0.964	-24.472	N.pl3	1	LIG1	0.000	
28	 C57	-6.095	3.551	-22.127	C.3	1	LIG1	0.000	
29	 C58	-7.939	2.041	-25.060	C.3	1	LIG1	0.000	
30	 C59	-8.531	-6.501	-25.472	C.3	1	LIG1	0.000	
31	 C60	-7.199	-4.838	-26.785	C.3	1	LIG1	0.000	
32	 C61	-8.248	-5.066	-25.726	C.3	1	LIG1	0.000	
33	 C62	-8.247	-3.219	-24.356	C.3	1	LIG1	0.000	
34	 C63	-7.005	-2.525	-22.075	C.3	1	LIG1	0.000	
35	 C64	-8.126	-0.365	-24.391	C.3	1	LIG1	0.000	
36	 C65	-8.105	-2.539	-23.066	C.3	1	LIG1	0.000	
37	 C66	-8.658	-1.154	-23.146	C.3	1	LIG1	0.000	
@<TRIPOS>BOND
1 5 19 ar
2 6 32 1
3 2 7 2
4 3 8 2
5 8 29 1
6 4 9 2
7 9 26 1
8 5 10 ar
9 11 12 ar
10 12 17 ar
11 13 16 ar
12 14 15 ar
13 15 21 ar
14 1 16 1
15 11 16 ar
16 7 17 1
17 13 18 ar
18 17 18 ar
19 19 23 ar
20 14 20 ar
21 21 24 ar
22 10 22 ar
23 22 24 ar
24 20 23 ar
25 23 24 ar
26 8 25 1
27 22 26 1
28 26 34 1
29 7 27 1
30 27 35 1
31 25 28 1
32 27 29 1
33 30 32 1
34 31 32 1
35 6 33 1
36 34 36 1
37 35 37 1
38 33 36 1
39 9 37 1
40 18 37 1
41 36 37 1
@<TRIPOS>SUBSTRUCTURE
1	LIG1	1	GROUP	1 C	LIG
