# created with PyMOL 3.1.3.1
@<TRIPOS>MOLECULE
predicted
37 42 1                 
SMALL
USER_CHARGES
@<TRIPOS>ATOM
1	 O27	-10.725	2.103	-24.334	O.2	1	LIG1	0.000	
2	 O28	-8.524	3.901	-25.308	O.2	1	LIG1	0.000	
3	 O29	-8.642	0.504	-21.468	O.2	1	LIG1	0.000	
4	 N32	-6.144	-0.614	-17.975	N.2	1	LIG1	0.000	
5	 C33	-10.209	0.998	-24.157	C.2	1	LIG1	0.000	
6	 C34	-8.132	3.120	-24.498	C.2	1	LIG1	0.000	
7	 C35	-8.260	-0.569	-21.896	C.2	1	LIG1	0.000	
8	 C36	-6.856	-1.056	-18.999	C.2	1	LIG1	0.000	
9	 C37	-13.119	-1.010	-22.953	C.2	1	LIG1	0.000	
10	 C38	-12.391	0.014	-23.490	C.2	1	LIG1	0.000	
11	 C39	-11.083	-2.232	-22.494	C.2	1	LIG1	0.000	
12	 C40	-2.922	1.294	-20.992	C.2	1	LIG1	0.000	
13	 C41	-3.629	0.831	-22.081	C.2	1	LIG1	0.000	
14	 C42	-12.479	-2.141	-22.445	C.2	1	LIG1	0.000	
15	 C43	-10.999	-0.084	-23.562	C.2	1	LIG1	0.000	
16	 C44	-10.335	-1.225	-23.107	C.2	1	LIG1	0.000	
17	 C45	-5.007	0.050	-18.188	C.2	1	LIG1	0.000	
18	 C46	-3.373	1.042	-19.708	C.2	1	LIG1	0.000	
19	 C47	-4.776	0.128	-21.901	C.2	1	LIG1	0.000	
20	 C48	-6.454	-0.846	-20.329	C.2	1	LIG1	0.000	
21	 C49	-4.535	0.335	-19.488	C.2	1	LIG1	0.000	
22	 C50	-5.258	-0.123	-20.607	C.2	1	LIG1	0.000	
23	 N51	-7.907	3.389	-23.191	N.pl3	1	LIG1	0.000	
24	 N52	-7.244	-1.279	-21.378	N.pl3	1	LIG1	0.000	
25	 N53	-8.833	0.793	-24.426	N.pl3	1	LIG1	0.000	
26	 C54	-7.916	1.738	-24.913	C.3	1	LIG1	0.000	
27	 C55	-8.046	4.721	-22.638	C.3	1	LIG1	0.000	
28	 C56	-5.510	4.908	-22.665	C.3	1	LIG1	0.000	
29	 C57	-5.969	5.803	-21.602	C.3	1	LIG1	0.000	
30	 C58	-6.812	5.545	-22.711	C.3	1	LIG1	0.000	
31	 C59	-8.235	-3.466	-24.206	C.3	1	LIG1	0.000	
32	 C60	-7.111	-2.538	-22.038	C.3	1	LIG1	0.000	
33	 C61	-8.271	-0.509	-24.366	C.3	1	LIG1	0.000	
34	 C62	-8.242	-2.626	-22.997	C.3	1	LIG1	0.000	
35	 C63	-8.835	-1.255	-23.129	C.3	1	LIG1	0.000	
36	 F30	-13.215	-3.125	-21.945	 F	1	LIG1	0.000	
37	 F31	-7.099	6.660	-23.322	 F	1	LIG1	0.000	
@<TRIPOS>BOND
1 4 17 ar
2 1 5 2
3 5 15 1
4 2 6 2
5 6 23 1
6 3 7 2
7 7 35 1
8 4 8 ar
9 9 14 ar
10 9 10 ar
11 11 16 ar
12 12 13 ar
13 13 19 ar
14 11 14 ar
15 14 36 1
16 10 15 ar
17 15 16 ar
18 17 21 ar
19 12 18 ar
20 19 22 ar
21 8 20 ar
22 20 22 ar
23 18 21 ar
24 21 22 ar
25 23 27 1
26 7 24 1
27 20 24 1
28 5 25 1
29 25 26 1
30 6 26 1
31 27 30 1
32 28 29 1
33 28 30 1
34 29 30 1
35 30 37 1
36 31 34 1
37 24 32 1
38 25 33 1
39 32 34 1
40 34 35 1
41 16 35 1
42 33 35 1
@<TRIPOS>SUBSTRUCTURE
1	LIG1	1	GROUP	1 C	LIG
