# created with PyMOL 3.1.3.1
@<TRIPOS>MOLECULE
predicted
31 35 1                 
SMALL
USER_CHARGES
@<TRIPOS>ATOM
1	 N20	-7.152	3.012	-22.495	N.2	1	LIG1	0.000	
2	 O21	-10.767	2.429	-24.145	O.2	1	LIG1	0.000	
3	 O22	-8.631	0.625	-21.288	O.2	1	LIG1	0.000	
4	 C24	-7.679	3.224	-23.623	C.2	1	LIG1	0.000	
5	 N25	-6.146	-0.665	-17.869	N.2	1	LIG1	0.000	
6	 C26	-10.243	1.311	-23.983	C.2	1	LIG1	0.000	
7	 C27	-8.262	-0.416	-21.785	C.2	1	LIG1	0.000	
8	 C28	-6.852	-1.070	-18.904	C.2	1	LIG1	0.000	
9	 C29	-13.108	-0.777	-22.881	C.2	1	LIG1	0.000	
10	 C30	-12.393	0.272	-23.372	C.2	1	LIG1	0.000	
11	 C31	-11.064	-2.012	-22.446	C.2	1	LIG1	0.000	
12	 C32	-2.956	1.433	-20.808	C.2	1	LIG1	0.000	
13	 C33	-3.668	1.007	-21.919	C.2	1	LIG1	0.000	
14	 C34	-12.461	-1.920	-22.411	C.2	1	LIG1	0.000	
15	 C35	-11.008	0.188	-23.439	C.2	1	LIG1	0.000	
16	 C36	-10.332	-0.976	-23.036	C.2	1	LIG1	0.000	
17	 C37	-5.004	0.029	-18.048	C.2	1	LIG1	0.000	
18	 C38	-3.389	1.113	-19.530	C.2	1	LIG1	0.000	
19	 C39	-4.805	0.281	-21.750	C.2	1	LIG1	0.000	
20	 C40	-6.460	-0.799	-20.223	C.2	1	LIG1	0.000	
21	 C41	-4.541	0.378	-19.331	C.2	1	LIG1	0.000	
22	 C42	-5.271	-0.046	-20.463	C.2	1	LIG1	0.000	
23	 N43	-7.261	-1.168	-21.288	N.pl3	1	LIG1	0.000	
24	 N44	-8.864	1.157	-24.230	N.pl3	1	LIG1	0.000	
25	 C45	-8.058	2.237	-24.727	C.3	1	LIG1	0.000	
26	 C46	-8.233	-3.149	-24.253	C.3	1	LIG1	0.000	
27	 C47	-7.125	-2.396	-22.013	C.3	1	LIG1	0.000	
28	 C48	-8.286	-0.173	-24.241	C.3	1	LIG1	0.000	
29	 C49	-8.233	-2.385	-23.022	C.3	1	LIG1	0.000	
30	 C50	-8.828	-1.017	-23.060	C.3	1	LIG1	0.000	
31	 F23	-13.198	-2.921	-21.917	 F	1	LIG1	0.000	
@<TRIPOS>BOND
1 1 4 2
2 5 17 ar
3 2 6 2
4 6 15 1
5 3 7 2
6 7 30 1
7 5 8 ar
8 9 14 ar
9 9 10 ar
10 11 16 ar
11 12 13 ar
12 13 19 ar
13 11 14 ar
14 14 31 1
15 10 15 ar
16 15 16 ar
17 17 21 ar
18 12 18 ar
19 19 22 ar
20 8 20 ar
21 20 22 ar
22 18 21 ar
23 21 22 ar
24 7 23 1
25 20 23 1
26 6 24 1
27 24 25 1
28 4 25 1
29 26 29 1
30 23 27 1
31 24 28 1
32 27 29 1
33 29 30 1
34 16 30 1
35 28 30 1
@<TRIPOS>SUBSTRUCTURE
1	LIG1	1	GROUP	1 C	LIG
