# created with PyMOL 3.1.3.1
@<TRIPOS>MOLECULE
predicted
24 27 1                 
SMALL
USER_CHARGES
@<TRIPOS>ATOM
1	 O24	8.344	1.206	20.584	O.2	1	LIG1	0.000	
2	 N26	5.967	0.263	17.148	N.2	1	LIG1	0.000	
3	 C27	8.202	0.067	20.998	C.2	1	LIG1	0.000	
4	 C28	6.644	-0.287	18.149	C.2	1	LIG1	0.000	
5	 C29	2.765	1.970	20.206	C.2	1	LIG1	0.000	
6	 C30	3.441	1.429	21.246	C.2	1	LIG1	0.000	
7	 C31	4.868	0.914	17.363	C.2	1	LIG1	0.000	
8	 C32	3.218	1.818	18.913	C.2	1	LIG1	0.000	
9	 C33	4.591	0.739	21.054	C.2	1	LIG1	0.000	
10	 C34	6.252	-0.173	19.458	C.2	1	LIG1	0.000	
11	 C35	4.376	1.109	18.668	C.2	1	LIG1	0.000	
12	 C36	5.078	0.555	19.756	C.2	1	LIG1	0.000	
13	 N37	9.024	-0.452	21.889	N.pl3	1	LIG1	0.000	
14	 C38	7.090	-0.799	20.525	C.3	1	LIG1	0.000	
15	 C39	10.047	0.302	22.518	C.3	1	LIG1	0.000	
16	 C40	13.302	-1.047	22.474	C.3	1	LIG1	0.000	
17	 C41	13.175	-0.579	23.898	C.3	1	LIG1	0.000	
18	 C42	11.952	-1.235	21.995	C.3	1	LIG1	0.000	
19	 C43	11.704	-0.439	24.195	C.3	1	LIG1	0.000	
20	 C44	9.360	-2.081	24.585	C.3	1	LIG1	0.000	
21	 C45	8.975	-1.852	22.253	C.3	1	LIG1	0.000	
22	 C46	10.960	-0.861	23.046	C.3	1	LIG1	0.000	
23	 C47	10.033	-2.031	23.292	C.3	1	LIG1	0.000	
24	 F25	9.013	-3.361	24.910	 F	1	LIG1	0.000	
@<TRIPOS>BOND
1 1 3 2
2 2 7 ar
3 3 13 1
4 3 14 1
5 2 4 ar
6 5 6 ar
7 6 9 ar
8 7 11 ar
9 5 8 ar
10 9 12 ar
11 4 10 ar
12 10 12 ar
13 8 11 ar
14 11 12 ar
15 13 15 1
16 13 21 1
17 10 14 1
18 16 17 1
19 17 19 1
20 16 18 1
21 20 24 1
22 21 23 1
23 15 22 1
24 18 22 1
25 19 22 1
26 20 23 1
27 22 23 1
@<TRIPOS>SUBSTRUCTURE
1	LIG1	1	GROUP	1 C	LIG
