# created with PyMOL 3.1.3.1
@<TRIPOS>MOLECULE
predicted
36 41 1                 
SMALL
USER_CHARGES
@<TRIPOS>ATOM
1	CL28	-13.281	-3.019	-21.772	Cl	1	LIG1	0.000	
2	 O26	-10.565	2.514	-24.318	O.2	1	LIG1	0.000	
3	 O27	-8.555	0.726	-21.372	O.2	1	LIG1	0.000	
4	 N29	-6.143	-0.471	-17.914	N.2	1	LIG1	0.000	
5	 O30	-7.261	-3.749	-24.722	O.3	1	LIG1	0.000	
6	 C31	-10.054	1.380	-24.147	C.2	1	LIG1	0.000	
7	 C32	-8.161	-0.323	-21.850	C.2	1	LIG1	0.000	
8	 C33	-6.825	-0.895	-18.953	C.2	1	LIG1	0.000	
9	 C34	-12.966	-0.626	-22.947	C.2	1	LIG1	0.000	
10	 C35	-12.230	0.395	-23.476	C.2	1	LIG1	0.000	
11	 C36	-10.944	-1.886	-22.497	C.2	1	LIG1	0.000	
12	 C37	-2.837	1.473	-20.846	C.2	1	LIG1	0.000	
13	 C38	-3.515	1.016	-21.951	C.2	1	LIG1	0.000	
14	 C39	-12.329	-1.762	-22.452	C.2	1	LIG1	0.000	
15	 C40	-10.848	0.277	-23.550	C.2	1	LIG1	0.000	
16	 C41	-10.198	-0.899	-23.115	C.2	1	LIG1	0.000	
17	 C42	-4.995	0.203	-18.075	C.2	1	LIG1	0.000	
18	 C43	-3.319	1.207	-19.556	C.2	1	LIG1	0.000	
19	 C44	-4.663	0.311	-21.790	C.2	1	LIG1	0.000	
20	 C45	-6.378	-0.685	-20.266	C.2	1	LIG1	0.000	
21	 C46	-7.096	2.940	-23.983	C.2	1	LIG1	0.000	
22	 C47	-7.551	3.346	-22.766	C.2	1	LIG1	0.000	
23	 C48	-5.506	3.906	-22.926	C.2	1	LIG1	0.000	
24	 C49	-4.487	0.488	-19.369	C.2	1	LIG1	0.000	
25	 C50	-5.176	0.043	-20.511	C.2	1	LIG1	0.000	
26	 N51	-7.147	-1.081	-21.333	N.pl3	1	LIG1	0.000	
27	 N52	-8.704	1.166	-24.440	N.pl3	1	LIG1	0.000	
28	 N53	-5.866	3.323	-24.109	N.pl3	1	LIG1	0.000	
29	 N54	-6.549	3.915	-22.106	N.2	1	LIG1	0.000	
30	 C55	-7.535	-4.640	-25.766	C.3	1	LIG1	0.000	
31	 C56	-7.921	2.216	-25.055	C.3	1	LIG1	0.000	
32	 C57	-8.350	-3.167	-24.194	C.3	1	LIG1	0.000	
33	 C58	-7.031	-2.320	-22.042	C.3	1	LIG1	0.000	
34	 C59	-8.123	-0.151	-24.337	C.3	1	LIG1	0.000	
35	 C60	-8.127	-2.334	-23.035	C.3	1	LIG1	0.000	
36	 C61	-8.679	-0.947	-23.120	C.3	1	LIG1	0.000	
@<TRIPOS>BOND
1 4 17 ar
2 5 32 1
3 2 6 2
4 6 15 1
5 3 7 2
6 7 36 1
7 4 8 ar
8 9 14 ar
9 9 10 ar
10 11 16 ar
11 12 13 ar
12 13 19 ar
13 1 14 1
14 11 14 ar
15 10 15 ar
16 15 16 ar
17 17 24 ar
18 12 18 ar
19 19 25 ar
20 8 20 ar
21 20 25 ar
22 21 22 ar
23 21 28 ar
24 22 29 ar
25 23 28 ar
26 18 24 ar
27 24 25 ar
28 7 26 1
29 20 26 1
30 6 27 1
31 27 31 1
32 23 29 ar
33 5 30 1
34 21 31 1
35 32 35 1
36 26 33 1
37 27 34 1
38 33 35 1
39 35 36 1
40 16 36 1
41 34 36 1
@<TRIPOS>SUBSTRUCTURE
1	LIG1	1	GROUP	1 C	LIG
