# created with PyMOL 3.1.3.1
@<TRIPOS>MOLECULE
predicted
40 45 1                 
SMALL
USER_CHARGES
@<TRIPOS>ATOM
1	CL32	-13.651	-3.908	-22.422	Cl	1	LIG1	0.000	
2	 O29	-10.718	1.888	-23.866	O.2	1	LIG1	0.000	
3	 O30	-5.947	1.126	-24.236	O.2	1	LIG1	0.000	
4	 O31	-8.926	-0.008	-21.100	O.2	1	LIG1	0.000	
5	 N33	-6.513	-1.110	-17.625	N.2	1	LIG1	0.000	
6	 N34	-9.420	-7.267	-26.267	N.3	1	LIG1	0.000	
7	 C35	-10.244	0.763	-23.808	C.2	1	LIG1	0.000	
8	 C36	-6.812	1.860	-23.836	C.2	1	LIG1	0.000	
9	 C37	-8.505	-1.042	-21.580	C.2	1	LIG1	0.000	
10	 C38	-8.931	-6.035	-26.003	C.3	1	LIG1	0.000	
11	 C39	-7.194	-1.578	-18.663	C.2	1	LIG1	0.000	
12	 C40	-13.184	-1.415	-23.191	C.2	1	LIG1	0.000	
13	 C41	-12.427	-0.340	-23.495	C.2	1	LIG1	0.000	
14	 C42	-11.219	-2.655	-22.633	C.2	1	LIG1	0.000	
15	 C43	-3.134	0.555	-20.618	C.2	1	LIG1	0.000	
16	 C44	-3.808	0.054	-21.705	C.2	1	LIG1	0.000	
17	 C45	-12.599	-2.569	-22.756	C.2	1	LIG1	0.000	
18	 C46	-11.054	-0.400	-23.440	C.2	1	LIG1	0.000	
19	 C47	-8.354	-6.041	-24.784	C.3	1	LIG1	0.000	
20	 C48	-10.426	-1.588	-23.033	C.2	1	LIG1	0.000	
21	 C49	-5.359	-0.481	-17.843	C.2	1	LIG1	0.000	
22	 C50	-3.648	0.386	-19.344	C.2	1	LIG1	0.000	
23	 C51	-4.985	-0.595	-21.527	C.2	1	LIG1	0.000	
24	 C52	-6.755	-1.406	-19.975	C.2	1	LIG1	0.000	
25	 C53	-8.478	-7.298	-24.284	C.3	1	LIG1	0.000	
26	 C54	-4.830	-0.276	-19.134	C.2	1	LIG1	0.000	
27	 C55	-5.521	-0.752	-20.238	C.2	1	LIG1	0.000	
28	 N56	-6.627	2.762	-22.855	N.pl3	1	LIG1	0.000	
29	 N57	-7.739	-4.997	-24.118	N.3	1	LIG1	0.000	
30	 N58	-7.513	-1.806	-21.056	N.pl3	1	LIG1	0.000	
31	 N59	-8.895	0.606	-24.006	N.pl3	1	LIG1	0.000	
32	 N60	-9.150	-8.001	-25.210	N.3	1	LIG1	0.000	
33	 C61	-5.377	2.980	-22.231	C.3	1	LIG1	0.000	
34	 C62	-8.160	1.774	-24.372	C.3	1	LIG1	0.000	
35	 C63	-9.536	-9.372	-25.158	C.3	1	LIG1	0.000	
36	 C64	-8.250	-3.663	-24.132	C.3	1	LIG1	0.000	
37	 C65	-7.345	-3.017	-21.769	C.3	1	LIG1	0.000	
38	 C66	-8.311	-0.724	-24.023	C.3	1	LIG1	0.000	
39	 C67	-8.377	-3.000	-22.854	C.3	1	LIG1	0.000	
40	 C68	-8.934	-1.614	-22.892	C.3	1	LIG1	0.000	
@<TRIPOS>BOND
1 5 21 ar
2 6 32 1
3 2 7 2
4 3 8 2
5 8 34 1
6 4 9 2
7 9 30 1
8 6 10 1
9 5 11 ar
10 12 13 ar
11 13 18 ar
12 14 17 ar
13 15 16 ar
14 16 23 ar
15 1 17 1
16 12 17 ar
17 7 18 1
18 10 19 1
19 19 25 1
20 14 20 ar
21 18 20 ar
22 21 26 ar
23 15 22 ar
24 23 27 ar
25 11 24 ar
26 24 27 ar
27 22 26 ar
28 26 27 ar
29 8 28 1
30 19 29 1
31 24 30 1
32 30 37 1
33 7 31 1
34 31 38 1
35 25 32 1
36 32 35 1
37 28 33 1
38 31 34 1
39 29 36 1
40 37 39 1
41 38 40 1
42 36 39 1
43 9 40 1
44 20 40 1
45 39 40 1
@<TRIPOS>SUBSTRUCTURE
1	LIG1	1	GROUP	1 C	LIG
