# created with PyMOL 3.1.3.1
@<TRIPOS>MOLECULE
predicted
39 44 1                 
SMALL
USER_CHARGES
@<TRIPOS>ATOM
1	CL35	13.537	-2.093	21.961	Cl	1	LIG1	0.000	
2	 O32	10.240	3.418	23.662	O.2	1	LIG1	0.000	
3	 O33	8.558	1.419	20.838	O.2	1	LIG1	0.000	
4	 N36	6.147	0.008	17.411	N.2	1	LIG1	0.000	
5	 O37	4.018	-2.647	26.977	O.3	1	LIG1	0.000	
6	 O38	7.003	-2.507	24.381	O.3	1	LIG1	0.000	
7	 C39	9.840	2.258	23.568	C.2	1	LIG1	0.000	
8	 C40	8.234	0.355	21.341	C.2	1	LIG1	0.000	
9	 C41	6.870	-0.371	18.451	C.2	1	LIG1	0.000	
10	 C42	12.939	0.344	22.798	C.2	1	LIG1	0.000	
11	 C43	12.101	1.364	23.147	C.2	1	LIG1	0.000	
12	 C44	11.059	-1.056	22.333	C.2	1	LIG1	0.000	
13	 C45	2.850	1.853	20.354	C.2	1	LIG1	0.000	
14	 C46	3.569	1.460	21.461	C.2	1	LIG1	0.000	
15	 C47	12.427	-0.860	22.383	C.2	1	LIG1	0.000	
16	 C48	10.748	1.188	23.150	C.2	1	LIG1	0.000	
17	 C49	10.208	-0.045	22.773	C.2	1	LIG1	0.000	
18	 C50	4.985	0.621	17.595	C.2	1	LIG1	0.000	
19	 C51	3.310	1.579	19.071	C.2	1	LIG1	0.000	
20	 C52	4.746	0.807	21.302	C.2	1	LIG1	0.000	
21	 C53	6.479	-0.132	19.778	C.2	1	LIG1	0.000	
22	 C54	4.499	0.916	18.883	C.2	1	LIG1	0.000	
23	 C55	5.234	0.531	20.011	C.2	1	LIG1	0.000	
24	 N56	7.286	-0.470	20.847	N.pl3	1	LIG1	0.000	
25	 N57	8.505	1.979	23.772	N.pl3	1	LIG1	0.000	
26	 C58	4.492	-2.463	25.539	C.3	1	LIG1	0.000	
27	 C59	5.024	-3.741	27.193	C.3	1	LIG1	0.000	
28	 C60	6.856	-3.273	25.534	C.3	1	LIG1	0.000	
29	 C61	7.589	2.999	24.142	C.3	1	LIG1	0.000	
30	 C62	5.433	-3.632	25.767	C.3	1	LIG1	0.000	
31	 C63	8.239	-2.346	23.893	C.3	1	LIG1	0.000	
32	 C64	7.216	-1.681	21.588	C.3	1	LIG1	0.000	
33	 C65	8.045	0.652	23.763	C.3	1	LIG1	0.000	
34	 C66	5.668	5.192	21.857	C.3	1	LIG1	0.000	
35	 C67	7.139	3.659	22.856	C.3	1	LIG1	0.000	
36	 C68	8.255	-1.604	22.628	C.3	1	LIG1	0.000	
37	 C69	8.727	-0.161	22.671	C.3	1	LIG1	0.000	
38	 N70	6.110	4.561	23.032	N.3	1	LIG1	0.000	
39	 F34	5.064	-4.727	25.013	 F	1	LIG1	0.000	
@<TRIPOS>BOND
1 4 18 ar
2 5 27 1
3 6 28 1
4 2 7 2
5 3 8 2
6 8 24 1
7 4 9 ar
8 10 11 ar
9 11 16 ar
10 12 15 ar
11 13 14 ar
12 14 20 ar
13 1 15 1
14 10 15 ar
15 7 16 1
16 12 17 ar
17 16 17 ar
18 18 22 ar
19 13 19 ar
20 20 23 ar
21 9 21 ar
22 21 23 ar
23 19 22 ar
24 22 23 ar
25 21 24 1
26 24 32 1
27 7 25 1
28 25 33 1
29 5 26 1
30 28 30 1
31 25 29 1
32 26 30 1
33 27 30 1
34 30 39 1
35 6 31 1
36 32 36 1
37 33 37 1
38 34 38 1
39 29 35 1
40 31 36 1
41 8 37 1
42 17 37 1
43 36 37 1
44 35 38 1
@<TRIPOS>SUBSTRUCTURE
1	LIG1	1	GROUP	1 C	LIG
