# created with PyMOL 3.1.3.1
@<TRIPOS>MOLECULE
predicted
22 25 1                 
SMALL
USER_CHARGES
@<TRIPOS>ATOM
1	 O17	8.571	1.289	20.449	O.2	1	LIG1	0.000	
2	 N18	6.029	0.207	17.298	N.2	1	LIG1	0.000	
3	 S19	12.741	-2.087	23.680	S.2	1	LIG1	0.000	
4	 C20	8.404	0.254	21.067	C.2	1	LIG1	0.000	
5	 C21	6.772	-0.288	18.291	C.2	1	LIG1	0.000	
6	 C22	13.627	-0.802	23.263	C.2	1	LIG1	0.000	
7	 C23	11.257	-1.387	23.274	C.2	1	LIG1	0.000	
8	 C24	12.810	0.199	22.796	C.2	1	LIG1	0.000	
9	 C25	2.942	1.988	20.434	C.2	1	LIG1	0.000	
10	 C26	3.675	1.517	21.463	C.2	1	LIG1	0.000	
11	 C27	11.471	-0.131	22.777	C.2	1	LIG1	0.000	
12	 C28	4.925	0.843	17.538	C.2	1	LIG1	0.000	
13	 C29	3.337	1.783	19.138	C.2	1	LIG1	0.000	
14	 C30	4.830	0.840	21.243	C.2	1	LIG1	0.000	
15	 C31	6.416	-0.111	19.597	C.2	1	LIG1	0.000	
16	 C32	4.484	1.094	18.849	C.2	1	LIG1	0.000	
17	 C33	5.252	0.607	19.919	C.2	1	LIG1	0.000	
18	 N34	9.161	-0.038	22.126	N.pl3	1	LIG1	0.000	
19	 C35	7.320	-0.680	20.661	C.3	1	LIG1	0.000	
20	 C36	10.316	0.734	22.382	C.3	1	LIG1	0.000	
21	 C37	9.921	-2.030	23.261	C.3	1	LIG1	0.000	
22	 C38	8.830	-1.099	23.034	C.3	1	LIG1	0.000	
@<TRIPOS>BOND
1 1 4 2
2 2 12 ar
3 3 6 ar
4 4 18 1
5 4 19 1
6 2 5 ar
7 6 8 ar
8 3 7 ar
9 7 11 ar
10 8 11 ar
11 9 10 ar
12 10 14 ar
13 11 20 1
14 12 16 ar
15 9 13 ar
16 14 17 ar
17 5 15 ar
18 15 17 ar
19 13 16 ar
20 16 17 ar
21 18 20 1
22 18 22 1
23 15 19 1
24 7 21 1
25 21 22 1
@<TRIPOS>SUBSTRUCTURE
1	LIG1	1	GROUP	1 C	LIG
