# created with PyMOL 3.1.3.1
@<TRIPOS>MOLECULE
predicted
35 40 1                 
SMALL
USER_CHARGES
@<TRIPOS>ATOM
1	 O25	10.538	3.383	23.764	O.2	1	LIG1	0.000	
2	 O26	8.713	1.478	20.807	O.2	1	LIG1	0.000	
3	 N28	6.269	0.249	17.400	N.2	1	LIG1	0.000	
4	 N29	5.792	3.289	23.081	N.2	1	LIG1	0.000	
5	 C30	10.087	2.252	23.608	C.2	1	LIG1	0.000	
6	 C31	8.315	0.442	21.311	C.2	1	LIG1	0.000	
7	 C32	6.970	-0.135	18.444	C.2	1	LIG1	0.000	
8	 C33	5.316	4.053	22.053	C.2	1	LIG1	0.000	
9	 C34	13.096	0.253	22.683	C.2	1	LIG1	0.000	
10	 C35	12.306	1.288	23.096	C.2	1	LIG1	0.000	
11	 C36	11.153	-1.072	22.169	C.2	1	LIG1	0.000	
12	 C37	2.731	1.761	20.281	C.2	1	LIG1	0.000	
13	 C38	3.425	1.334	21.388	C.2	1	LIG1	0.000	
14	 C39	12.539	-0.916	22.225	C.2	1	LIG1	0.000	
15	 C40	10.928	1.157	23.102	C.2	1	LIG1	0.000	
16	 C41	10.333	-0.051	22.674	C.2	1	LIG1	0.000	
17	 C42	5.063	0.809	17.557	C.2	1	LIG1	0.000	
18	 C43	3.271	1.588	19.015	C.2	1	LIG1	0.000	
19	 C44	4.654	0.755	21.245	C.2	1	LIG1	0.000	
20	 C45	6.509	0.034	19.746	C.2	1	LIG1	0.000	
21	 C46	7.023	3.684	23.348	C.2	1	LIG1	0.000	
22	 C47	6.285	4.948	21.680	C.2	1	LIG1	0.000	
23	 C48	4.515	1.013	18.839	C.2	1	LIG1	0.000	
24	 C49	5.232	0.605	19.974	C.2	1	LIG1	0.000	
25	 N50	7.300	-0.314	20.831	N.pl3	1	LIG1	0.000	
26	 N51	8.731	2.016	23.848	N.pl3	1	LIG1	0.000	
27	 N52	7.348	4.686	22.537	N.2	1	LIG1	0.000	
28	 C53	7.904	3.040	24.432	C.3	1	LIG1	0.000	
29	 C54	8.589	5.426	22.539	C.3	1	LIG1	0.000	
30	 C55	8.204	-2.333	23.756	C.3	1	LIG1	0.000	
31	 C56	7.160	-1.531	21.561	C.3	1	LIG1	0.000	
32	 C57	8.186	0.656	23.774	C.3	1	LIG1	0.000	
33	 C58	8.307	-1.549	22.524	C.3	1	LIG1	0.000	
34	 C59	8.830	-0.145	22.613	C.3	1	LIG1	0.000	
35	 F27	13.345	-1.897	21.821	 F	1	LIG1	0.000	
@<TRIPOS>BOND
1 3 17 ar
2 4 8 ar
3 1 5 2
4 5 15 1
5 2 6 2
6 6 34 1
7 3 7 ar
8 8 22 ar
9 9 14 ar
10 9 10 ar
11 11 16 ar
12 12 13 ar
13 13 19 ar
14 11 14 ar
15 14 35 1
16 10 15 ar
17 15 16 ar
18 17 23 ar
19 12 18 ar
20 19 24 ar
21 7 20 ar
22 20 24 ar
23 4 21 ar
24 21 27 ar
25 22 27 ar
26 18 23 ar
27 23 24 ar
28 6 25 1
29 20 25 1
30 5 26 1
31 26 28 1
32 27 29 1
33 21 28 1
34 30 33 1
35 25 31 1
36 26 32 1
37 31 33 1
38 33 34 1
39 16 34 1
40 32 34 1
@<TRIPOS>SUBSTRUCTURE
1	LIG1	1	GROUP	1 C	LIG
