# created with PyMOL 3.1.3.1
@<TRIPOS>MOLECULE
predicted
24 26 1                 
SMALL
USER_CHARGES
@<TRIPOS>ATOM
1	 O18	-9.185	-0.383	-20.833	O.2	1	LIG1	0.000	
2	 N22	-6.456	-1.254	-17.599	N.2	1	LIG1	0.000	
3	 S23	-13.179	-1.582	-22.830	S.3	1	LIG1	0.000	
4	 C24	-9.094	-1.473	-21.313	C.2	1	LIG1	0.000	
5	 C25	-7.263	-1.838	-18.505	C.2	1	LIG1	0.000	
6	 C26	-3.554	0.142	-21.090	C.2	1	LIG1	0.000	
7	 C27	-4.384	-0.439	-22.020	C.2	1	LIG1	0.000	
8	 C28	-5.351	-0.676	-17.963	C.2	1	LIG1	0.000	
9	 C29	-3.855	0.080	-19.752	C.2	1	LIG1	0.000	
10	 C30	-5.521	-1.074	-21.658	C.2	1	LIG1	0.000	
11	 C31	-7.028	-1.814	-19.848	C.2	1	LIG1	0.000	
12	 C32	-4.995	-0.568	-19.318	C.2	1	LIG1	0.000	
13	 C33	-5.842	-1.168	-20.303	C.2	1	LIG1	0.000	
14	 N34	-9.898	-1.797	-22.395	N.pl3	1	LIG1	0.000	
15	 C35	-8.033	-2.442	-20.814	C.3	1	LIG1	0.000	
16	 C36	-12.738	-3.422	-23.120	C.3	1	LIG1	0.000	
17	 C37	-10.116	-3.140	-22.868	C.3	1	LIG1	0.000	
18	 C38	-11.439	-3.769	-22.346	C.3	1	LIG1	0.000	
19	 C39	-9.460	-0.314	-24.137	C.3	1	LIG1	0.000	
20	 C40	-11.887	-0.763	-23.671	C.3	1	LIG1	0.000	
21	 C41	-10.531	-0.710	-23.089	C.3	1	LIG1	0.000	
22	 F19	-8.280	-0.330	-23.569	 F	1	LIG1	0.000	
23	 F20	-9.695	0.899	-24.549	 F	1	LIG1	0.000	
24	 F21	-9.372	-1.168	-25.150	 F	1	LIG1	0.000	
@<TRIPOS>BOND
1 1 4 2
2 2 8 ar
3 3 20 1
4 4 14 1
5 4 15 1
6 2 5 ar
7 6 7 ar
8 7 10 ar
9 8 12 ar
10 6 9 ar
11 10 13 ar
12 5 11 ar
13 11 13 ar
14 9 12 ar
15 12 13 ar
16 14 17 1
17 14 21 1
18 11 15 1
19 3 16 1
20 17 18 1
21 16 18 1
22 19 22 1
23 19 23 1
24 19 24 1
25 20 21 1
26 19 21 1
@<TRIPOS>SUBSTRUCTURE
1	LIG1	1	GROUP	1 C	LIG
