# created with PyMOL 3.1.3.1
@<TRIPOS>MOLECULE
predicted
26 29 1                 
SMALL
USER_CHARGES
@<TRIPOS>ATOM
1	CL18	-12.885	-2.651	-21.455	Cl	1	LIG1	0.000	
2	 O15	-8.579	0.338	-21.197	O.2	1	LIG1	0.000	
3	 O16	-9.329	-0.895	-27.007	O.2	1	LIG1	0.000	
4	 O17	-10.096	1.360	-26.193	O.2	1	LIG1	0.000	
5	 N19	-6.099	-0.630	-17.939	N.2	1	LIG1	0.000	
6	 N20	-3.155	1.106	-20.806	N.2	1	LIG1	0.000	
7	 C21	-7.946	-0.429	-21.878	C.2	1	LIG1	0.000	
8	 C22	-6.714	-0.968	-19.065	C.2	1	LIG1	0.000	
9	 C23	-12.549	-1.463	-23.840	C.2	1	LIG1	0.000	
10	 C24	-10.616	-1.683	-22.462	C.2	1	LIG1	0.000	
11	 C25	-11.798	-0.869	-24.827	C.2	1	LIG1	0.000	
12	 C26	-11.951	-1.864	-22.680	C.2	1	LIG1	0.000	
13	 C27	-9.815	-1.048	-23.431	C.2	1	LIG1	0.000	
14	 C28	-10.424	-0.696	-24.620	C.2	1	LIG1	0.000	
15	 C29	-4.937	0.019	-17.931	C.2	1	LIG1	0.000	
16	 C30	-3.218	1.029	-19.463	C.2	1	LIG1	0.000	
17	 C31	-6.168	-0.638	-20.310	C.2	1	LIG1	0.000	
18	 C32	-4.348	0.376	-19.123	C.2	1	LIG1	0.000	
19	 C33	-4.980	0.064	-20.287	C.2	1	LIG1	0.000	
20	 N34	-6.775	-0.985	-21.539	N.pl3	1	LIG1	0.000	
21	 N35	-8.095	0.233	-25.415	N.3	1	LIG1	0.000	
22	 N36	-4.217	0.529	-21.309	N.2	1	LIG1	0.000	
23	 C37	-4.421	0.470	-22.740	C.3	1	LIG1	0.000	
24	 C38	-7.814	0.313	-24.092	C.3	1	LIG1	0.000	
25	 C39	-8.393	-0.827	-23.245	C.3	1	LIG1	0.000	
26	 S40	-9.522	0.030	-25.902	S.O2	1	LIG1	0.000	
@<TRIPOS>BOND
1 5 8 ar
2 6 16 ar
3 2 7 2
4 7 25 1
5 8 17 ar
6 9 12 ar
7 10 13 ar
8 9 11 ar
9 1 12 1
10 10 12 ar
11 11 14 ar
12 13 14 ar
13 5 15 ar
14 16 18 ar
15 17 19 ar
16 17 20 1
17 15 18 ar
18 18 19 ar
19 7 20 1
20 21 26 1
21 6 22 ar
22 19 22 ar
23 22 23 1
24 21 24 1
25 13 25 1
26 24 25 1
27 3 26 2
28 4 26 2
29 14 26 1
@<TRIPOS>SUBSTRUCTURE
1	LIG1	1	GROUP	1 C	LIG
