# created with PyMOL 3.1.3.1
@<TRIPOS>MOLECULE
predicted
36 40 1                 
SMALL
USER_CHARGES
@<TRIPOS>ATOM
1	CL29	13.260	-1.924	22.093	Cl	1	LIG1	0.000	
2	 O25	10.163	3.775	23.432	O.2	1	LIG1	0.000	
3	 O26	7.768	-3.904	23.514	O.2	1	LIG1	0.000	
4	 O27	5.519	3.488	23.200	O.2	1	LIG1	0.000	
5	 O28	8.454	1.612	20.817	O.2	1	LIG1	0.000	
6	 N30	6.165	0.085	17.400	N.2	1	LIG1	0.000	
7	 C31	9.751	2.616	23.455	C.2	1	LIG1	0.000	
8	 C32	7.481	-3.047	24.322	C.2	1	LIG1	0.000	
9	 C33	6.625	3.892	23.161	C.2	1	LIG1	0.000	
10	 C34	8.076	0.593	21.372	C.2	1	LIG1	0.000	
11	 C35	6.831	-0.230	18.491	C.2	1	LIG1	0.000	
12	 C36	12.761	0.575	22.764	C.2	1	LIG1	0.000	
13	 C37	11.965	1.641	23.052	C.2	1	LIG1	0.000	
14	 C38	10.839	-0.825	22.419	C.2	1	LIG1	0.000	
15	 C39	2.696	2.018	20.059	C.2	1	LIG1	0.000	
16	 C40	3.365	1.697	21.216	C.2	1	LIG1	0.000	
17	 C41	12.203	-0.654	22.424	C.2	1	LIG1	0.000	
18	 C42	10.606	1.487	23.071	C.2	1	LIG1	0.000	
19	 C43	10.021	0.222	22.802	C.2	1	LIG1	0.000	
20	 C44	4.996	0.686	17.494	C.2	1	LIG1	0.000	
21	 C45	3.237	1.679	18.826	C.2	1	LIG1	0.000	
22	 C46	4.559	1.053	21.154	C.2	1	LIG1	0.000	
23	 C47	6.376	0.078	19.765	C.2	1	LIG1	0.000	
24	 C48	4.445	1.037	18.728	C.2	1	LIG1	0.000	
25	 C49	5.129	0.728	19.913	C.2	1	LIG1	0.000	
26	 N50	7.034	4.678	22.173	N.pl3	1	LIG1	0.000	
27	 N51	7.115	-0.218	20.873	N.pl3	1	LIG1	0.000	
28	 N52	8.411	2.370	23.755	N.pl3	1	LIG1	0.000	
29	 N53	7.519	-1.682	24.003	N.pl3	1	LIG1	0.000	
30	 C54	7.077	-3.408	25.703	C.3	1	LIG1	0.000	
31	 C55	6.145	5.186	21.192	C.3	1	LIG1	0.000	
32	 C56	7.593	3.465	24.188	C.3	1	LIG1	0.000	
33	 C57	6.970	-1.394	21.645	C.3	1	LIG1	0.000	
34	 C58	7.897	1.000	23.848	C.3	1	LIG1	0.000	
35	 C59	8.005	-1.285	22.773	C.3	1	LIG1	0.000	
36	 C60	8.529	0.107	22.725	C.3	1	LIG1	0.000	
@<TRIPOS>BOND
1 6 20 ar
2 2 7 2
3 3 8 2
4 8 30 1
5 4 9 2
6 9 32 1
7 5 10 2
8 10 27 1
9 6 11 ar
10 12 13 ar
11 13 18 ar
12 14 17 ar
13 15 16 ar
14 16 22 ar
15 1 17 1
16 12 17 ar
17 7 18 1
18 14 19 ar
19 18 19 ar
20 20 24 ar
21 15 21 ar
22 22 25 ar
23 11 23 ar
24 23 25 ar
25 21 24 ar
26 24 25 ar
27 9 26 1
28 23 27 1
29 27 33 1
30 7 28 1
31 28 34 1
32 8 29 1
33 26 31 1
34 28 32 1
35 33 35 1
36 34 36 1
37 29 35 1
38 10 36 1
39 19 36 1
40 35 36 1
@<TRIPOS>SUBSTRUCTURE
1	LIG1	1	GROUP	1 C	LIG
