# created with PyMOL 3.1.3.1
@<TRIPOS>MOLECULE
predicted
35 40 1                 
SMALL
USER_CHARGES
@<TRIPOS>ATOM
1	 O23	10.574	3.211	23.896	O.2	1	LIG1	0.000	
2	 O24	8.791	1.329	20.920	O.2	1	LIG1	0.000	
3	 N26	5.384	4.616	21.757	N.2	1	LIG1	0.000	
4	 N27	5.731	3.355	23.752	N.2	1	LIG1	0.000	
5	 N28	6.359	0.161	17.471	N.2	1	LIG1	0.000	
6	 C29	10.147	2.064	23.723	C.2	1	LIG1	0.000	
7	 C30	8.405	0.279	21.399	C.2	1	LIG1	0.000	
8	 C31	4.924	3.949	22.853	C.2	1	LIG1	0.000	
9	 C32	6.684	4.719	21.578	C.2	1	LIG1	0.000	
10	 C33	7.054	-0.242	18.516	C.2	1	LIG1	0.000	
11	 C34	7.059	3.443	23.566	C.2	1	LIG1	0.000	
12	 C35	7.575	4.125	22.488	C.2	1	LIG1	0.000	
13	 C36	13.204	0.139	22.735	C.2	1	LIG1	0.000	
14	 C37	12.401	1.160	23.168	C.2	1	LIG1	0.000	
15	 C38	11.260	-1.214	22.216	C.2	1	LIG1	0.000	
16	 C39	2.873	1.760	20.353	C.2	1	LIG1	0.000	
17	 C40	3.558	1.323	21.465	C.2	1	LIG1	0.000	
18	 C41	12.652	-1.044	22.253	C.2	1	LIG1	0.000	
19	 C42	11.016	0.995	23.184	C.2	1	LIG1	0.000	
20	 C43	10.427	-0.223	22.746	C.2	1	LIG1	0.000	
21	 C44	5.175	0.743	17.642	C.2	1	LIG1	0.000	
22	 C45	3.402	1.563	19.089	C.2	1	LIG1	0.000	
23	 C46	4.771	0.720	21.331	C.2	1	LIG1	0.000	
24	 C47	6.605	-0.072	19.826	C.2	1	LIG1	0.000	
25	 C48	4.626	0.958	18.916	C.2	1	LIG1	0.000	
26	 C49	5.336	0.535	20.050	C.2	1	LIG1	0.000	
27	 N50	7.389	-0.456	20.901	N.pl3	1	LIG1	0.000	
28	 N51	8.802	1.790	23.973	N.pl3	1	LIG1	0.000	
29	 C52	7.974	2.795	24.595	C.3	1	LIG1	0.000	
30	 C53	8.301	-2.527	23.815	C.3	1	LIG1	0.000	
31	 C54	7.250	-1.687	21.617	C.3	1	LIG1	0.000	
32	 C55	8.285	0.429	23.874	C.3	1	LIG1	0.000	
33	 C56	8.415	-1.731	22.575	C.3	1	LIG1	0.000	
34	 C57	8.931	-0.329	22.692	C.3	1	LIG1	0.000	
35	 F25	13.473	-1.996	21.845	 F	1	LIG1	0.000	
@<TRIPOS>BOND
1 3 8 ar
2 5 21 ar
3 1 6 2
4 6 19 1
5 2 7 2
6 7 34 1
7 4 8 ar
8 3 9 ar
9 5 10 ar
10 4 11 ar
11 11 12 ar
12 9 12 ar
13 13 18 ar
14 13 14 ar
15 15 20 ar
16 16 17 ar
17 17 23 ar
18 15 18 ar
19 18 35 1
20 14 19 ar
21 19 20 ar
22 21 25 ar
23 16 22 ar
24 23 26 ar
25 10 24 ar
26 24 26 ar
27 22 25 ar
28 25 26 ar
29 7 27 1
30 24 27 1
31 6 28 1
32 28 29 1
33 11 29 1
34 30 33 1
35 27 31 1
36 28 32 1
37 31 33 1
38 33 34 1
39 20 34 1
40 32 34 1
@<TRIPOS>SUBSTRUCTURE
1	LIG1	1	GROUP	1 C	LIG
