# created with PyMOL 3.1.3.1
@<TRIPOS>MOLECULE
predicted
36 41 1                 
SMALL
USER_CHARGES
@<TRIPOS>ATOM
1	 O27	-10.987	2.072	-24.446	O.2	1	LIG1	0.000	
2	 O28	-8.833	0.471	-21.397	O.2	1	LIG1	0.000	
3	 N30	-6.275	-0.519	-17.941	N.2	1	LIG1	0.000	
4	 N31	-5.750	3.650	-23.401	N.2	1	LIG1	0.000	
5	 C32	-10.439	0.969	-24.213	C.2	1	LIG1	0.000	
6	 C33	-8.397	-0.570	-21.863	C.2	1	LIG1	0.000	
7	 C34	-6.604	3.543	-22.446	C.2	1	LIG1	0.000	
8	 C35	-6.969	-0.986	-18.959	C.2	1	LIG1	0.000	
9	 C36	-13.244	-1.055	-22.817	C.2	1	LIG1	0.000	
10	 C37	-12.558	-0.040	-23.420	C.2	1	LIG1	0.000	
11	 C38	-11.168	-2.244	-22.373	C.2	1	LIG1	0.000	
12	 C39	-2.993	1.307	-20.977	C.2	1	LIG1	0.000	
13	 C40	-3.681	0.809	-22.066	C.2	1	LIG1	0.000	
14	 C41	-7.758	2.894	-22.936	C.2	1	LIG1	0.000	
15	 C42	-12.562	-2.166	-22.283	C.2	1	LIG1	0.000	
16	 C43	-11.164	-0.115	-23.533	C.2	1	LIG1	0.000	
17	 C44	-10.466	-1.248	-23.056	C.2	1	LIG1	0.000	
18	 C45	-5.128	0.150	-18.154	C.2	1	LIG1	0.000	
19	 C46	-3.464	1.089	-19.684	C.2	1	LIG1	0.000	
20	 C47	-4.834	0.120	-21.879	C.2	1	LIG1	0.000	
21	 C48	-6.551	-0.812	-20.297	C.2	1	LIG1	0.000	
22	 C49	-7.482	2.587	-24.253	C.2	1	LIG1	0.000	
23	 C50	-4.633	0.388	-19.457	C.2	1	LIG1	0.000	
24	 C51	-5.335	-0.098	-20.563	C.2	1	LIG1	0.000	
25	 N52	-7.336	-1.260	-21.349	N.pl3	1	LIG1	0.000	
26	 N53	-9.109	0.785	-24.536	N.pl3	1	LIG1	0.000	
27	 N54	-6.298	3.099	-24.516	N.2	1	LIG1	0.000	
28	 C55	-8.398	1.841	-25.217	C.3	1	LIG1	0.000	
29	 C56	-4.574	2.058	-25.803	C.3	1	LIG1	0.000	
30	 C57	-5.572	3.104	-25.782	C.3	1	LIG1	0.000	
31	 C58	-8.321	-3.472	-24.173	C.3	1	LIG1	0.000	
32	 C59	-7.166	-2.505	-22.024	C.3	1	LIG1	0.000	
33	 C60	-8.460	-0.499	-24.369	C.3	1	LIG1	0.000	
34	 C61	-8.333	-2.625	-22.964	C.3	1	LIG1	0.000	
35	 C62	-8.954	-1.254	-23.095	C.3	1	LIG1	0.000	
36	 F29	-13.265	-3.127	-21.706	 F	1	LIG1	0.000	
@<TRIPOS>BOND
1 3 18 ar
2 4 7 ar
3 1 5 2
4 2 6 2
5 6 25 1
6 7 14 ar
7 3 8 ar
8 9 10 ar
9 10 16 ar
10 11 15 ar
11 12 13 ar
12 13 20 ar
13 14 22 ar
14 9 15 ar
15 15 36 1
16 5 16 1
17 11 17 ar
18 16 17 ar
19 18 23 ar
20 12 19 ar
21 20 24 ar
22 8 21 ar
23 21 24 ar
24 22 28 1
25 19 23 ar
26 23 24 ar
27 21 25 1
28 25 32 1
29 5 26 1
30 26 33 1
31 4 27 ar
32 22 27 ar
33 26 28 1
34 29 30 1
35 27 30 1
36 32 34 1
37 33 35 1
38 31 34 1
39 6 35 1
40 17 35 1
41 34 35 1
@<TRIPOS>SUBSTRUCTURE
1	LIG1	1	GROUP	1 C	LIG
