# created with PyMOL 3.1.3.1
@<TRIPOS>MOLECULE
predicted
35 40 1                 
SMALL
USER_CHARGES
@<TRIPOS>ATOM
1	 O25	10.387	3.138	23.811	O.2	1	LIG1	0.000	
2	 O26	8.674	1.210	20.835	O.2	1	LIG1	0.000	
3	 N28	6.165	0.063	17.435	N.2	1	LIG1	0.000	
4	 N29	5.661	3.684	23.451	N.2	1	LIG1	0.000	
5	 C30	9.979	1.989	23.653	C.2	1	LIG1	0.000	
6	 C31	8.274	0.169	21.330	C.2	1	LIG1	0.000	
7	 C32	6.886	-0.341	18.467	C.2	1	LIG1	0.000	
8	 C33	6.933	3.410	23.363	C.2	1	LIG1	0.000	
9	 C34	13.069	0.070	22.741	C.2	1	LIG1	0.000	
10	 C35	12.245	1.091	23.152	C.2	1	LIG1	0.000	
11	 C36	11.147	-1.303	22.211	C.2	1	LIG1	0.000	
12	 C37	2.729	1.664	20.406	C.2	1	LIG1	0.000	
13	 C38	3.450	1.228	21.503	C.2	1	LIG1	0.000	
14	 C39	7.430	3.904	22.183	C.2	1	LIG1	0.000	
15	 C40	12.541	-1.118	22.275	C.2	1	LIG1	0.000	
16	 C41	10.865	0.922	23.143	C.2	1	LIG1	0.000	
17	 C42	10.300	-0.301	22.714	C.2	1	LIG1	0.000	
18	 C43	4.974	0.648	17.631	C.2	1	LIG1	0.000	
19	 C44	3.232	1.474	19.126	C.2	1	LIG1	0.000	
20	 C45	4.662	0.628	21.329	C.2	1	LIG1	0.000	
21	 C46	6.450	-0.176	19.784	C.2	1	LIG1	0.000	
22	 C47	6.331	4.469	21.514	C.2	1	LIG1	0.000	
23	 C48	4.454	0.866	18.921	C.2	1	LIG1	0.000	
24	 C49	5.191	0.441	20.038	C.2	1	LIG1	0.000	
25	 N50	7.250	-0.566	20.852	N.pl3	1	LIG1	0.000	
26	 N51	8.615	1.704	23.886	N.pl3	1	LIG1	0.000	
27	 N52	5.297	4.322	22.296	N.2	1	LIG1	0.000	
28	 C53	7.750	2.689	24.462	C.3	1	LIG1	0.000	
29	 C54	3.988	4.783	22.030	C.3	1	LIG1	0.000	
30	 C55	8.148	-2.614	23.773	C.3	1	LIG1	0.000	
31	 C56	7.105	-1.794	21.577	C.3	1	LIG1	0.000	
32	 C57	8.114	0.343	23.795	C.3	1	LIG1	0.000	
33	 C58	8.277	-1.832	22.527	C.3	1	LIG1	0.000	
34	 C59	8.790	-0.429	22.634	C.3	1	LIG1	0.000	
35	 F27	13.380	-2.082	21.888	 F	1	LIG1	0.000	
@<TRIPOS>BOND
1 3 18 ar
2 1 5 2
3 5 16 1
4 2 6 2
5 6 34 1
6 3 7 ar
7 4 8 ar
8 8 14 ar
9 9 15 ar
10 9 10 ar
11 11 17 ar
12 12 13 ar
13 13 20 ar
14 14 22 ar
15 11 15 ar
16 15 35 1
17 10 16 ar
18 16 17 ar
19 18 23 ar
20 12 19 ar
21 20 24 ar
22 7 21 ar
23 21 24 ar
24 22 27 ar
25 19 23 ar
26 23 24 ar
27 6 25 1
28 21 25 1
29 5 26 1
30 26 28 1
31 4 27 ar
32 27 29 1
33 8 28 1
34 30 33 1
35 25 31 1
36 26 32 1
37 31 33 1
38 33 34 1
39 17 34 1
40 32 34 1
@<TRIPOS>SUBSTRUCTURE
1	LIG1	1	GROUP	1 C	LIG
