# created with PyMOL 3.1.3.1
@<TRIPOS>MOLECULE
predicted
22 25 1                 
SMALL
USER_CHARGES
@<TRIPOS>ATOM
1	 O23	-8.495	0.576	-21.141	O.2	1	LIG1	0.000	
2	 N24	-6.160	-0.482	-17.750	N.2	1	LIG1	0.000	
3	 C25	-8.317	-0.500	-21.684	C.2	1	LIG1	0.000	
4	 C26	-6.844	-1.009	-18.775	C.2	1	LIG1	0.000	
5	 C27	-3.006	1.412	-20.754	C.2	1	LIG1	0.000	
6	 C28	-3.689	0.904	-21.816	C.2	1	LIG1	0.000	
7	 C29	-5.078	0.197	-17.945	C.2	1	LIG1	0.000	
8	 C30	-3.449	1.195	-19.464	C.2	1	LIG1	0.000	
9	 C31	-4.827	0.187	-21.638	C.2	1	LIG1	0.000	
10	 C32	-6.459	-0.844	-20.053	C.2	1	LIG1	0.000	
11	 C33	-4.596	0.454	-19.233	C.2	1	LIG1	0.000	
12	 C34	-5.296	-0.075	-20.347	C.2	1	LIG1	0.000	
13	 N35	-9.047	-0.775	-22.796	N.pl3	1	LIG1	0.000	
14	 C36	-7.298	-1.453	-21.176	C.3	1	LIG1	0.000	
15	 C37	-9.060	-2.067	-23.443	C.3	1	LIG1	0.000	
16	 C38	-9.948	0.260	-23.331	C.3	1	LIG1	0.000	
17	 C39	-13.640	-2.440	-24.260	C.3	1	LIG1	0.000	
18	 C40	-10.486	-2.640	-23.159	C.3	1	LIG1	0.000	
19	 C41	-11.366	-0.210	-22.960	C.3	1	LIG1	0.000	
20	 C42	-12.248	-1.639	-24.817	C.3	1	LIG1	0.000	
21	 C43	-12.863	-2.210	-22.764	C.3	1	LIG1	0.000	
22	 C44	-11.638	-1.630	-23.434	C.3	1	LIG1	0.000	
@<TRIPOS>BOND
1 1 3 2
2 2 7 ar
3 3 13 1
4 3 14 1
5 2 4 ar
6 5 6 ar
7 6 9 ar
8 7 11 ar
9 5 8 ar
10 9 12 ar
11 4 10 ar
12 10 12 ar
13 8 11 ar
14 11 12 ar
15 13 15 1
16 13 16 1
17 10 14 1
18 15 18 1
19 17 21 1
20 18 22 1
21 16 19 1
22 17 20 1
23 19 22 1
24 20 22 1
25 21 22 1
@<TRIPOS>SUBSTRUCTURE
1	LIG1	1	GROUP	1 C	LIG
