# created with PyMOL 3.1.3.1
@<TRIPOS>MOLECULE
predicted
36 41 1                 
SMALL
USER_CHARGES
@<TRIPOS>ATOM
1	CL27	13.360	-2.056	21.979	Cl	1	LIG1	0.000	
2	 O25	10.008	3.430	23.761	O.2	1	LIG1	0.000	
3	 O26	8.399	1.398	20.855	O.2	1	LIG1	0.000	
4	 N28	6.085	0.090	17.397	N.2	1	LIG1	0.000	
5	 N29	5.292	3.534	23.201	N.pl3	1	LIG1	0.000	
6	 O30	7.060	-3.098	24.188	O.3	1	LIG1	0.000	
7	 C31	9.612	2.273	23.648	C.2	1	LIG1	0.000	
8	 C32	8.031	0.358	21.354	C.2	1	LIG1	0.000	
9	 C33	6.765	-0.290	18.459	C.2	1	LIG1	0.000	
10	 C34	4.916	4.131	22.038	C.2	1	LIG1	0.000	
11	 C35	12.737	0.397	22.862	C.2	1	LIG1	0.000	
12	 C36	11.891	1.408	23.216	C.2	1	LIG1	0.000	
13	 C37	10.864	-1.032	22.347	C.2	1	LIG1	0.000	
14	 C38	2.575	1.781	20.215	C.2	1	LIG1	0.000	
15	 C39	3.246	1.362	21.341	C.2	1	LIG1	0.000	
16	 C40	12.236	-0.814	22.419	C.2	1	LIG1	0.000	
17	 C41	10.526	1.202	23.184	C.2	1	LIG1	0.000	
18	 C42	9.997	-0.045	22.792	C.2	1	LIG1	0.000	
19	 C43	4.899	0.681	17.536	C.2	1	LIG1	0.000	
20	 C44	3.118	1.555	18.956	C.2	1	LIG1	0.000	
21	 C45	4.446	0.743	21.220	C.2	1	LIG1	0.000	
22	 C46	6.289	-0.090	19.761	C.2	1	LIG1	0.000	
23	 C47	6.581	3.572	23.287	C.2	1	LIG1	0.000	
24	 C48	6.037	4.563	21.424	C.2	1	LIG1	0.000	
25	 C49	4.335	0.935	18.807	C.2	1	LIG1	0.000	
26	 C50	5.024	0.531	19.961	C.2	1	LIG1	0.000	
27	 N51	7.050	-0.441	20.846	N.pl3	1	LIG1	0.000	
28	 N52	8.278	1.960	23.891	N.pl3	1	LIG1	0.000	
29	 N53	7.076	4.208	22.218	N.2	1	LIG1	0.000	
30	 C54	7.167	-3.797	25.394	C.3	1	LIG1	0.000	
31	 C55	7.398	2.961	24.420	C.3	1	LIG1	0.000	
32	 C56	8.076	-2.312	23.891	C.3	1	LIG1	0.000	
33	 C57	6.948	-1.657	21.592	C.3	1	LIG1	0.000	
34	 C58	7.797	0.593	23.819	C.3	1	LIG1	0.000	
35	 C59	8.040	-1.618	22.602	C.3	1	LIG1	0.000	
36	 C60	8.509	-0.193	22.685	C.3	1	LIG1	0.000	
@<TRIPOS>BOND
1 4 19 ar
2 5 10 ar
3 6 32 1
4 2 7 2
5 7 17 1
6 3 8 2
7 8 36 1
8 4 9 ar
9 10 24 ar
10 11 16 ar
11 11 12 ar
12 13 18 ar
13 14 15 ar
14 15 21 ar
15 1 16 1
16 13 16 ar
17 12 17 ar
18 17 18 ar
19 19 25 ar
20 14 20 ar
21 21 26 ar
22 9 22 ar
23 22 26 ar
24 5 23 ar
25 23 29 ar
26 24 29 ar
27 20 25 ar
28 25 26 ar
29 8 27 1
30 22 27 1
31 7 28 1
32 28 31 1
33 6 30 1
34 23 31 1
35 32 35 1
36 27 33 1
37 28 34 1
38 33 35 1
39 35 36 1
40 18 36 1
41 34 36 1
@<TRIPOS>SUBSTRUCTURE
1	LIG1	1	GROUP	1 C	LIG
