# created with PyMOL 3.1.3.1
@<TRIPOS>MOLECULE
predicted
36 41 1                 
SMALL
USER_CHARGES
@<TRIPOS>ATOM
1	 O28	-10.830	2.233	-24.522	O.2	1	LIG1	0.000	
2	 O29	-5.965	1.963	-24.767	O.2	1	LIG1	0.000	
3	 O30	-8.678	0.592	-21.588	O.2	1	LIG1	0.000	
4	 N32	-6.214	-0.584	-18.034	N.2	1	LIG1	0.000	
5	 C33	-10.322	1.107	-24.335	C.2	1	LIG1	0.000	
6	 C34	-7.074	2.288	-24.452	C.2	1	LIG1	0.000	
7	 C35	-8.301	-0.484	-22.020	C.2	1	LIG1	0.000	
8	 C36	-6.928	-1.013	-19.073	C.2	1	LIG1	0.000	
9	 C37	-13.156	-0.867	-22.971	C.2	1	LIG1	0.000	
10	 C38	-12.455	0.131	-23.561	C.2	1	LIG1	0.000	
11	 C39	-11.094	-2.099	-22.529	C.2	1	LIG1	0.000	
12	 C40	-2.850	1.155	-20.992	C.2	1	LIG1	0.000	
13	 C41	-3.534	0.709	-22.093	C.2	1	LIG1	0.000	
14	 C42	-12.489	-1.986	-22.444	C.2	1	LIG1	0.000	
15	 C43	-11.066	0.036	-23.673	C.2	1	LIG1	0.000	
16	 C44	-10.386	-1.111	-23.198	C.2	1	LIG1	0.000	
17	 C45	-5.047	0.039	-18.225	C.2	1	LIG1	0.000	
18	 C46	-3.344	0.937	-19.714	C.2	1	LIG1	0.000	
19	 C47	-4.725	0.055	-21.932	C.2	1	LIG1	0.000	
20	 C48	-6.498	-0.814	-20.408	C.2	1	LIG1	0.000	
21	 C49	-4.538	0.285	-19.519	C.2	1	LIG1	0.000	
22	 C50	-5.258	-0.157	-20.653	C.2	1	LIG1	0.000	
23	 N51	-7.393	2.925	-23.279	N.pl3	1	LIG1	0.000	
24	 N52	-7.296	-1.220	-21.478	N.pl3	1	LIG1	0.000	
25	 N53	-9.000	0.906	-24.649	N.pl3	1	LIG1	0.000	
26	 C54	-8.238	1.925	-25.289	C.3	1	LIG1	0.000	
27	 C55	-6.376	3.442	-22.403	C.3	1	LIG1	0.000	
28	 C56	-4.964	5.505	-22.349	C.3	1	LIG1	0.000	
29	 C57	-6.041	5.771	-21.452	C.3	1	LIG1	0.000	
30	 C58	-6.333	4.984	-22.702	C.3	1	LIG1	0.000	
31	 C59	-8.278	-3.393	-24.298	C.3	1	LIG1	0.000	
32	 C60	-7.165	-2.468	-22.141	C.3	1	LIG1	0.000	
33	 C61	-8.394	-0.428	-24.543	C.3	1	LIG1	0.000	
34	 C62	-8.292	-2.537	-23.112	C.3	1	LIG1	0.000	
35	 C63	-8.897	-1.155	-23.256	C.3	1	LIG1	0.000	
36	 F31	-13.197	-2.955	-21.875	 F	1	LIG1	0.000	
@<TRIPOS>BOND
1 4 17 ar
2 1 5 2
3 5 15 1
4 2 6 2
5 6 23 1
6 3 7 2
7 7 35 1
8 4 8 ar
9 9 14 ar
10 9 10 ar
11 11 16 ar
12 12 13 ar
13 13 19 ar
14 11 14 ar
15 14 36 1
16 10 15 ar
17 15 16 ar
18 17 21 ar
19 12 18 ar
20 19 22 ar
21 8 20 ar
22 20 22 ar
23 18 21 ar
24 21 22 ar
25 23 27 1
26 7 24 1
27 20 24 1
28 5 25 1
29 25 26 1
30 6 26 1
31 27 30 1
32 28 29 1
33 28 30 1
34 29 30 1
35 31 34 1
36 24 32 1
37 25 33 1
38 32 34 1
39 34 35 1
40 16 35 1
41 33 35 1
@<TRIPOS>SUBSTRUCTURE
1	LIG1	1	GROUP	1 C	LIG
