# created with PyMOL 3.1.3.1
@<TRIPOS>MOLECULE
predicted
40 45 1                 
SMALL
USER_CHARGES
@<TRIPOS>ATOM
1	CL30	-13.196	-3.080	-21.737	Cl	1	LIG1	0.000	
2	 O27	-10.745	2.473	-24.358	O.2	1	LIG1	0.000	
3	 O28	-5.909	2.347	-24.371	O.2	1	LIG1	0.000	
4	 O29	-8.599	0.769	-21.409	O.2	1	LIG1	0.000	
5	 N31	-7.015	-6.039	-27.586	N.2	1	LIG1	0.000	
6	 N32	-8.858	-5.507	-25.655	N.2	1	LIG1	0.000	
7	 N33	-6.193	-0.563	-17.886	N.2	1	LIG1	0.000	
8	 C34	-10.199	1.364	-24.194	C.2	1	LIG1	0.000	
9	 C35	-7.019	2.710	-24.138	C.2	1	LIG1	0.000	
10	 C36	-8.191	-0.264	-21.887	C.2	1	LIG1	0.000	
11	 C37	-8.185	-6.678	-27.572	C.2	1	LIG1	0.000	
12	 C38	-9.124	-6.383	-26.581	C.2	1	LIG1	0.000	
13	 C39	-6.748	-5.112	-26.658	C.2	1	LIG1	0.000	
14	 C40	-6.874	-0.956	-18.958	C.2	1	LIG1	0.000	
15	 C41	-7.712	-4.802	-25.686	C.2	1	LIG1	0.000	
16	 C42	-12.992	-0.722	-22.926	C.2	1	LIG1	0.000	
17	 C43	-12.306	0.309	-23.488	C.2	1	LIG1	0.000	
18	 C44	-10.914	-1.894	-22.478	C.2	1	LIG1	0.000	
19	 C45	-2.804	1.315	-20.749	C.2	1	LIG1	0.000	
20	 C46	-3.484	0.907	-21.881	C.2	1	LIG1	0.000	
21	 C47	-12.303	-1.833	-22.414	C.2	1	LIG1	0.000	
22	 C48	-10.928	0.255	-23.582	C.2	1	LIG1	0.000	
23	 C49	-10.229	-0.884	-23.130	C.2	1	LIG1	0.000	
24	 C50	-5.023	0.062	-18.052	C.2	1	LIG1	0.000	
25	 C51	-3.308	1.040	-19.475	C.2	1	LIG1	0.000	
26	 C52	-4.664	0.246	-21.756	C.2	1	LIG1	0.000	
27	 C53	-6.430	-0.699	-20.270	C.2	1	LIG1	0.000	
28	 C54	-4.495	0.369	-19.324	C.2	1	LIG1	0.000	
29	 C55	-5.189	-0.029	-20.478	C.2	1	LIG1	0.000	
30	 N56	-7.343	3.383	-23.022	N.pl3	1	LIG1	0.000	
31	 N57	-7.439	-3.841	-24.804	N.pl3	1	LIG1	0.000	
32	 N58	-7.197	-1.051	-21.352	N.pl3	1	LIG1	0.000	
33	 N59	-8.857	1.215	-24.474	N.pl3	1	LIG1	0.000	
34	 C60	-6.333	3.809	-22.118	C.3	1	LIG1	0.000	
35	 C61	-8.138	2.318	-25.044	C.3	1	LIG1	0.000	
36	 C62	-8.441	-3.122	-24.113	C.3	1	LIG1	0.000	
37	 C63	-7.071	-2.282	-22.051	C.3	1	LIG1	0.000	
38	 C64	-8.228	-0.086	-24.403	C.3	1	LIG1	0.000	
39	 C65	-8.088	-2.253	-23.111	C.3	1	LIG1	0.000	
40	 C66	-8.728	-0.903	-23.157	C.3	1	LIG1	0.000	
@<TRIPOS>BOND
1 5 11 ar
2 7 24 ar
3 2 8 2
4 3 9 2
5 9 35 1
6 4 10 2
7 10 32 1
8 11 12 ar
9 6 12 ar
10 5 13 ar
11 7 14 ar
12 6 15 ar
13 13 15 ar
14 16 17 ar
15 17 22 ar
16 18 21 ar
17 19 20 ar
18 20 26 ar
19 1 21 1
20 16 21 ar
21 8 22 1
22 18 23 ar
23 22 23 ar
24 24 28 ar
25 19 25 ar
26 26 29 ar
27 14 27 ar
28 27 29 ar
29 25 28 ar
30 28 29 ar
31 9 30 1
32 15 31 1
33 27 32 1
34 32 37 1
35 8 33 1
36 33 38 1
37 30 34 1
38 33 35 1
39 31 36 1
40 37 39 1
41 38 40 1
42 36 39 1
43 10 40 1
44 23 40 1
45 39 40 1
@<TRIPOS>SUBSTRUCTURE
1	LIG1	1	GROUP	1 C	LIG
