# created with PyMOL 3.1.3.1
@<TRIPOS>MOLECULE
predicted
34 39 1                 
SMALL
USER_CHARGES
@<TRIPOS>ATOM
1	CL33	-13.170	-2.641	-21.230	Cl	1	LIG1	0.000	
2	 O32	-8.432	0.984	-21.106	O.2	1	LIG1	0.000	
3	 N34	-6.148	-0.477	-17.740	N.2	1	LIG1	0.000	
4	 O35	-12.927	6.186	-22.490	O.3	1	LIG1	0.000	
5	 C36	-8.258	-0.034	-21.765	C.2	1	LIG1	0.000	
6	 C37	-6.910	-0.935	-18.765	C.2	1	LIG1	0.000	
7	 C38	-12.363	-2.073	-25.082	C.2	1	LIG1	0.000	
8	 C39	-13.022	-2.376	-23.894	C.2	1	LIG1	0.000	
9	 C40	-11.023	-1.707	-25.023	C.2	1	LIG1	0.000	
10	 C41	-10.999	-1.927	-22.632	C.2	1	LIG1	0.000	
11	 C42	-3.024	1.349	-20.811	C.2	1	LIG1	0.000	
12	 C43	-3.781	0.909	-21.879	C.2	1	LIG1	0.000	
13	 C44	-12.329	-2.291	-22.682	C.2	1	LIG1	0.000	
14	 C45	-10.353	-1.698	-23.791	C.2	1	LIG1	0.000	
15	 C46	-5.040	0.145	-17.960	C.2	1	LIG1	0.000	
16	 C47	-3.445	1.104	-19.508	C.2	1	LIG1	0.000	
17	 C48	-4.959	0.232	-21.674	C.2	1	LIG1	0.000	
18	 C49	-6.574	-0.769	-20.104	C.2	1	LIG1	0.000	
19	 C50	-4.604	0.398	-19.269	C.2	1	LIG1	0.000	
20	 C51	-5.385	-0.043	-20.365	C.2	1	LIG1	0.000	
21	 N52	-8.705	-0.038	-23.052	N.pl3	1	LIG1	0.000	
22	 C53	-7.530	-1.243	-21.224	C.3	1	LIG1	0.000	
23	 C54	-8.858	-1.337	-23.792	C.3	1	LIG1	0.000	
24	 C55	-11.985	5.061	-22.054	C.3	1	LIG1	0.000	
25	 C56	-13.395	5.330	-23.524	C.3	1	LIG1	0.000	
26	 C57	-12.412	4.183	-23.139	C.3	1	LIG1	0.000	
27	 C58	-8.613	1.241	-25.226	C.3	1	LIG1	0.000	
28	 C59	-8.487	2.775	-25.488	C.3	1	LIG1	0.000	
29	 C60	-8.395	2.454	-23.239	C.3	1	LIG1	0.000	
30	 C61	-11.426	3.971	-24.280	C.3	1	LIG1	0.000	
31	 C62	-10.490	1.672	-23.690	C.3	1	LIG1	0.000	
32	 C63	-9.064	1.194	-23.734	C.3	1	LIG1	0.000	
33	 C64	-8.954	3.439	-24.222	C.3	1	LIG1	0.000	
34	 N65	-10.396	3.117	-23.938	N.3	1	LIG1	0.000	
@<TRIPOS>BOND
1 2 5 2
2 3 15 ar
3 4 25 1
4 5 21 1
5 5 22 1
6 3 6 ar
7 7 8 ar
8 8 13 ar
9 7 9 ar
10 11 12 ar
11 12 17 ar
12 1 13 1
13 10 13 ar
14 9 14 ar
15 10 14 ar
16 15 19 ar
17 11 16 ar
18 17 20 ar
19 6 18 ar
20 18 20 ar
21 16 19 ar
22 19 20 ar
23 21 23 1
24 21 32 1
25 18 22 1
26 14 23 1
27 4 24 1
28 24 26 1
29 25 26 1
30 27 28 1
31 28 33 1
32 26 30 1
33 27 32 1
34 29 32 1
35 31 32 1
36 29 33 1
37 33 34 1
38 30 34 1
39 31 34 1
@<TRIPOS>SUBSTRUCTURE
1	LIG1	1	GROUP	1 C	LIG
