# created with PyMOL 3.1.3.1
@<TRIPOS>MOLECULE
predicted
29 31 1                 
SMALL
USER_CHARGES
@<TRIPOS>ATOM
1	CL24	-13.369	-2.686	-22.395	Cl	1	LIG1	0.000	
2	 O22	-8.461	0.088	-21.133	O.2	1	LIG1	0.000	
3	 O23	-5.760	-3.930	-24.716	O.2	1	LIG1	0.000	
4	 N25	-5.900	-0.407	-17.824	N.2	1	LIG1	0.000	
5	 C26	-7.883	-0.855	-21.620	C.2	1	LIG1	0.000	
6	 C27	-6.869	-4.326	-24.500	C.2	1	LIG1	0.000	
7	 C28	-8.123	-2.511	-25.660	C.3	1	LIG1	0.000	
8	 C29	-8.034	-3.280	-24.400	C.3	1	LIG1	0.000	
9	 C30	-6.487	-0.945	-18.866	C.2	1	LIG1	0.000	
10	 C31	-11.314	0.164	-24.271	C.2	1	LIG1	0.000	
11	 C32	-12.366	-0.614	-23.800	C.2	1	LIG1	0.000	
12	 C33	-10.016	-0.135	-23.928	C.2	1	LIG1	0.000	
13	 C34	-10.808	-2.040	-22.631	C.2	1	LIG1	0.000	
14	 C35	-2.548	1.393	-20.734	C.2	1	LIG1	0.000	
15	 C36	-3.156	0.826	-21.817	C.2	1	LIG1	0.000	
16	 C37	-12.087	-1.715	-22.977	C.2	1	LIG1	0.000	
17	 C38	-9.781	-1.237	-23.066	C.2	1	LIG1	0.000	
18	 C39	-4.796	0.294	-17.983	C.2	1	LIG1	0.000	
19	 C40	-3.083	1.248	-19.462	C.2	1	LIG1	0.000	
20	 C41	-4.296	0.117	-21.669	C.2	1	LIG1	0.000	
21	 C42	-6.029	-0.786	-20.156	C.2	1	LIG1	0.000	
22	 C43	-4.235	0.501	-19.263	C.2	1	LIG1	0.000	
23	 C44	-4.864	-0.060	-20.375	C.2	1	LIG1	0.000	
24	 N45	-6.703	-1.366	-21.227	N.pl3	1	LIG1	0.000	
25	 N46	-8.476	-1.533	-22.650	N.pl3	1	LIG1	0.000	
26	 N47	-7.183	-5.569	-24.134	N.pl3	1	LIG1	0.000	
27	 C48	-7.758	-2.649	-23.238	C.3	1	LIG1	0.000	
28	 C49	-5.597	-6.635	-22.627	C.3	1	LIG1	0.000	
29	 C50	-6.126	-6.602	-24.031	C.3	1	LIG1	0.000	
@<TRIPOS>BOND
1 4 18 ar
2 2 5 2
3 5 24 1
4 3 6 2
5 6 26 1
6 7 8 1
7 6 8 1
8 8 27 1
9 4 9 ar
10 10 11 ar
11 11 16 ar
12 10 12 ar
13 14 15 ar
14 15 20 ar
15 1 16 1
16 13 16 ar
17 12 17 ar
18 13 17 ar
19 18 22 ar
20 14 19 ar
21 20 23 ar
22 9 21 ar
23 21 23 ar
24 19 22 ar
25 22 23 ar
26 21 24 1
27 5 25 1
28 17 25 1
29 26 29 1
30 25 27 1
31 28 29 1
@<TRIPOS>SUBSTRUCTURE
1	LIG1	1	GROUP	1 C	LIG
