# created with PyMOL 3.1.3.1
@<TRIPOS>MOLECULE
predicted
33 37 1                 
SMALL
USER_CHARGES
@<TRIPOS>ATOM
1	CL31	13.680	-2.094	21.859	Cl	1	LIG1	0.000	
2	 O29	10.638	3.655	23.364	O.2	1	LIG1	0.000	
3	 O30	8.738	1.512	20.730	O.2	1	LIG1	0.000	
4	 N32	6.211	0.087	17.472	N.2	1	LIG1	0.000	
5	 C33	10.194	2.500	23.337	C.2	1	LIG1	0.000	
6	 C34	8.373	0.498	21.311	C.2	1	LIG1	0.000	
7	 C35	6.951	-0.252	18.517	C.2	1	LIG1	0.000	
8	 C36	13.193	0.429	22.590	C.2	1	LIG1	0.000	
9	 C37	12.412	1.494	22.914	C.2	1	LIG1	0.000	
10	 C38	11.229	-0.929	22.227	C.2	1	LIG1	0.000	
11	 C39	2.849	1.912	20.397	C.2	1	LIG1	0.000	
12	 C40	3.584	1.555	21.509	C.2	1	LIG1	0.000	
13	 C41	12.606	-0.768	22.233	C.2	1	LIG1	0.000	
14	 C42	11.036	1.358	22.951	C.2	1	LIG1	0.000	
15	 C43	10.423	0.120	22.654	C.2	1	LIG1	0.000	
16	 C44	5.035	0.688	17.652	C.2	1	LIG1	0.000	
17	 C45	3.324	1.625	19.124	C.2	1	LIG1	0.000	
18	 C46	4.776	0.922	21.351	C.2	1	LIG1	0.000	
19	 C47	6.535	-0.010	19.828	C.2	1	LIG1	0.000	
20	 C48	4.535	0.996	18.933	C.2	1	LIG1	0.000	
21	 C49	5.286	0.642	20.060	C.2	1	LIG1	0.000	
22	 N50	7.358	-0.299	20.905	N.pl3	1	LIG1	0.000	
23	 N51	8.831	2.297	23.579	N.pl3	1	LIG1	0.000	
24	 C52	7.983	3.391	23.911	C.3	1	LIG1	0.000	
25	 C53	8.291	-2.060	23.982	C.3	1	LIG1	0.000	
26	 C54	7.247	-1.459	21.723	C.3	1	LIG1	0.000	
27	 C55	8.323	0.934	23.735	C.3	1	LIG1	0.000	
28	 C56	7.362	6.263	22.340	C.3	1	LIG1	0.000	
29	 C57	5.317	4.952	22.209	C.3	1	LIG1	0.000	
30	 C58	7.396	3.898	22.582	C.3	1	LIG1	0.000	
31	 C59	8.402	-1.378	22.684	C.3	1	LIG1	0.000	
32	 C60	8.926	0.026	22.638	C.3	1	LIG1	0.000	
33	 N61	6.625	5.101	22.757	N.3	1	LIG1	0.000	
@<TRIPOS>BOND
1 4 16 ar
2 2 5 2
3 5 14 1
4 3 6 2
5 6 32 1
6 4 7 ar
7 8 13 ar
8 8 9 ar
9 10 15 ar
10 11 12 ar
11 12 18 ar
12 1 13 1
13 10 13 ar
14 9 14 ar
15 14 15 ar
16 16 20 ar
17 11 17 ar
18 18 21 ar
19 7 19 ar
20 19 21 ar
21 17 20 ar
22 20 21 ar
23 6 22 1
24 19 22 1
25 5 23 1
26 23 24 1
27 24 30 1
28 25 31 1
29 22 26 1
30 23 27 1
31 30 33 1
32 26 31 1
33 31 32 1
34 15 32 1
35 27 32 1
36 28 33 1
37 29 33 1
@<TRIPOS>SUBSTRUCTURE
1	LIG1	1	GROUP	1 C	LIG
