# created with PyMOL 3.1.3.1
@<TRIPOS>MOLECULE
predicted
23 26 1                 
SMALL
USER_CHARGES
@<TRIPOS>ATOM
1	 O19	-8.231	0.509	-21.298	O.2	1	LIG1	0.000	
2	 N20	-6.127	-0.557	-17.747	N.2	1	LIG1	0.000	
3	 S21	-13.107	-1.217	-23.235	S.2	1	LIG1	0.000	
4	 C22	-8.094	-0.559	-21.805	C.2	1	LIG1	0.000	
5	 C23	-6.794	-1.102	-18.748	C.2	1	LIG1	0.000	
6	 C24	-12.747	-2.537	-22.262	C.2	1	LIG1	0.000	
7	 C25	-11.453	-1.053	-23.753	C.2	1	LIG1	0.000	
8	 C26	-11.414	-2.832	-22.323	C.2	1	LIG1	0.000	
9	 C27	-2.879	1.152	-20.743	C.2	1	LIG1	0.000	
10	 C28	-3.537	0.602	-21.793	C.2	1	LIG1	0.000	
11	 C29	-10.672	-2.038	-23.160	C.2	1	LIG1	0.000	
12	 C30	-5.023	0.091	-17.931	C.2	1	LIG1	0.000	
13	 C31	-3.352	1.000	-19.448	C.2	1	LIG1	0.000	
14	 C32	-4.697	-0.087	-21.611	C.2	1	LIG1	0.000	
15	 C33	-6.376	-0.989	-20.050	C.2	1	LIG1	0.000	
16	 C34	-4.517	0.289	-19.220	C.2	1	LIG1	0.000	
17	 C35	-5.198	-0.274	-20.327	C.2	1	LIG1	0.000	
18	 N36	-8.594	-0.864	-23.069	N.pl3	1	LIG1	0.000	
19	 C37	-7.221	-1.599	-21.152	C.3	1	LIG1	0.000	
20	 C38	-9.175	-2.139	-23.406	C.3	1	LIG1	0.000	
21	 C39	-11.010	0.090	-24.652	C.3	1	LIG1	0.000	
22	 C40	-8.553	0.085	-24.140	C.3	1	LIG1	0.000	
23	 C41	-9.816	0.919	-24.133	C.3	1	LIG1	0.000	
@<TRIPOS>BOND
1 1 4 2
2 2 12 ar
3 3 6 ar
4 4 18 1
5 4 19 1
6 2 5 ar
7 6 8 ar
8 3 7 ar
9 7 11 ar
10 8 11 ar
11 9 10 ar
12 10 14 ar
13 11 20 1
14 12 16 ar
15 9 13 ar
16 14 17 ar
17 5 15 ar
18 15 17 ar
19 13 16 ar
20 16 17 ar
21 18 20 1
22 18 22 1
23 15 19 1
24 7 21 1
25 22 23 1
26 21 23 1
@<TRIPOS>SUBSTRUCTURE
1	LIG1	1	GROUP	1 C	LIG
