# created with PyMOL 3.1.3.1
@<TRIPOS>MOLECULE
predicted
38 42 1                 
SMALL
USER_CHARGES
@<TRIPOS>ATOM
1	CL32	13.227	-2.191	22.034	Cl	1	LIG1	0.000	
2	 O27	10.195	3.529	23.523	O.2	1	LIG1	0.000	
3	 O28	6.333	5.007	23.696	O.2	1	LIG1	0.000	
4	 O29	8.413	1.532	20.796	O.2	1	LIG1	0.000	
5	 O30	5.661	-3.325	23.707	O.2	1	LIG1	0.000	
6	 O31	6.940	-3.396	25.777	O.2	1	LIG1	0.000	
7	 N33	6.061	0.086	17.319	N.2	1	LIG1	0.000	
8	 C34	9.729	2.377	23.471	C.2	1	LIG1	0.000	
9	 C35	7.019	4.191	23.269	C.2	1	LIG1	0.000	
10	 C36	8.014	0.494	21.308	C.2	1	LIG1	0.000	
11	 C37	6.734	-0.265	18.401	C.2	1	LIG1	0.000	
12	 C38	12.728	0.307	22.772	C.2	1	LIG1	0.000	
13	 C39	11.943	1.370	23.077	C.2	1	LIG1	0.000	
14	 C40	10.765	-1.027	22.342	C.2	1	LIG1	0.000	
15	 C41	2.666	2.056	20.083	C.2	1	LIG1	0.000	
16	 C42	3.352	1.698	21.228	C.2	1	LIG1	0.000	
17	 C43	12.152	-0.886	22.389	C.2	1	LIG1	0.000	
18	 C44	10.568	1.247	23.068	C.2	1	LIG1	0.000	
19	 C45	9.961	0.028	22.733	C.2	1	LIG1	0.000	
20	 C46	4.900	0.717	17.456	C.2	1	LIG1	0.000	
21	 C47	3.176	1.733	18.839	C.2	1	LIG1	0.000	
22	 C48	4.522	1.030	21.136	C.2	1	LIG1	0.000	
23	 C49	6.293	0.052	19.693	C.2	1	LIG1	0.000	
24	 C50	4.361	1.062	18.714	C.2	1	LIG1	0.000	
25	 C51	5.053	0.712	19.872	C.2	1	LIG1	0.000	
26	 N52	7.263	4.251	21.994	N.pl3	1	LIG1	0.000	
27	 N53	7.047	-0.291	20.794	N.pl3	1	LIG1	0.000	
28	 N54	8.356	2.147	23.721	N.pl3	1	LIG1	0.000	
29	 N55	7.636	-1.796	23.981	N.3	1	LIG1	0.000	
30	 C56	6.697	5.288	21.153	C.3	1	LIG1	0.000	
31	 C57	7.515	3.166	24.195	C.3	1	LIG1	0.000	
32	 C58	7.622	-5.717	23.498	C.3	1	LIG1	0.000	
33	 C59	6.927	-1.493	21.518	C.3	1	LIG1	0.000	
34	 C60	7.831	0.842	23.753	C.3	1	LIG1	0.000	
35	 C61	8.106	-4.410	23.639	C.3	1	LIG1	0.000	
36	 C62	7.924	-1.409	22.668	C.3	1	LIG1	0.000	
37	 C63	8.464	-0.045	22.643	C.3	1	LIG1	0.000	
38	 S64	6.993	-3.250	24.333	S.O2	1	LIG1	0.000	
@<TRIPOS>BOND
1 7 20 ar
2 2 8 2
3 8 18 1
4 3 9 2
5 9 26 1
6 4 10 2
7 10 37 1
8 7 11 ar
9 12 17 ar
10 12 13 ar
11 14 19 ar
12 15 16 ar
13 16 22 ar
14 1 17 1
15 14 17 ar
16 13 18 ar
17 18 19 ar
18 20 24 ar
19 15 21 ar
20 22 25 ar
21 11 23 ar
22 23 25 ar
23 21 24 ar
24 24 25 ar
25 26 30 1
26 10 27 1
27 23 27 1
28 8 28 1
29 28 31 1
30 29 36 1
31 9 31 1
32 32 35 1
33 27 33 1
34 28 34 1
35 35 38 1
36 33 36 1
37 36 37 1
38 19 37 1
39 34 37 1
40 5 38 2
41 6 38 2
42 29 38 1
@<TRIPOS>SUBSTRUCTURE
1	LIG1	1	GROUP	1 C	LIG
