# created with PyMOL 3.1.3.1
@<TRIPOS>MOLECULE
predicted
34 39 1                 
SMALL
USER_CHARGES
@<TRIPOS>ATOM
1	 O22	-10.898	2.131	-24.360	O.2	1	LIG1	0.000	
2	 O23	-8.783	0.471	-21.416	O.2	1	LIG1	0.000	
3	 N25	-6.294	-0.577	-17.926	N.2	1	LIG1	0.000	
4	 N26	-6.772	3.708	-22.263	N.2	1	LIG1	0.000	
5	 N27	-6.105	2.677	-24.079	N.2	1	LIG1	0.000	
6	 C28	-10.367	1.014	-24.178	C.2	1	LIG1	0.000	
7	 C29	-8.368	-0.578	-21.870	C.2	1	LIG1	0.000	
8	 C30	-7.850	3.257	-22.966	C.2	1	LIG1	0.000	
9	 C31	-6.984	-1.028	-18.952	C.2	1	LIG1	0.000	
10	 C32	-7.405	2.607	-24.067	C.2	1	LIG1	0.000	
11	 C33	-13.214	-1.035	-22.895	C.2	1	LIG1	0.000	
12	 C34	-12.511	-0.009	-23.462	C.2	1	LIG1	0.000	
13	 C35	-11.148	-2.238	-22.421	C.2	1	LIG1	0.000	
14	 C36	-2.943	1.214	-20.913	C.2	1	LIG1	0.000	
15	 C37	-3.627	0.725	-22.011	C.2	1	LIG1	0.000	
16	 C38	-12.548	-2.153	-22.366	C.2	1	LIG1	0.000	
17	 C39	-11.117	-0.092	-23.544	C.2	1	LIG1	0.000	
18	 C40	-10.427	-1.242	-23.091	C.2	1	LIG1	0.000	
19	 C41	-5.129	0.073	-18.119	C.2	1	LIG1	0.000	
20	 C42	-3.431	0.995	-19.628	C.2	1	LIG1	0.000	
21	 C43	-4.805	0.052	-21.835	C.2	1	LIG1	0.000	
22	 C44	-6.555	-0.844	-20.280	C.2	1	LIG1	0.000	
23	 C45	-4.621	0.312	-19.420	C.2	1	LIG1	0.000	
24	 C46	-5.329	-0.158	-20.538	C.2	1	LIG1	0.000	
25	 N47	-7.330	-1.276	-21.344	N.pl3	1	LIG1	0.000	
26	 N48	-9.017	0.832	-24.476	N.pl3	1	LIG1	0.000	
27	 N49	-5.714	3.346	-22.956	N.2	1	LIG1	0.000	
28	 C50	-8.266	1.884	-25.123	C.3	1	LIG1	0.000	
29	 C51	-8.268	-3.479	-24.174	C.3	1	LIG1	0.000	
30	 C52	-7.169	-2.541	-22.010	C.3	1	LIG1	0.000	
31	 C53	-8.387	-0.497	-24.374	C.3	1	LIG1	0.000	
32	 C54	-8.312	-2.631	-22.976	C.3	1	LIG1	0.000	
33	 C55	-8.917	-1.262	-23.114	C.3	1	LIG1	0.000	
34	 F24	-13.265	-3.125	-21.814	 F	1	LIG1	0.000	
@<TRIPOS>BOND
1 3 19 ar
2 4 27 ar
3 1 6 2
4 6 17 1
5 2 7 2
6 7 33 1
7 4 8 ar
8 3 9 ar
9 5 10 ar
10 8 10 ar
11 11 16 ar
12 11 12 ar
13 13 18 ar
14 14 15 ar
15 15 21 ar
16 13 16 ar
17 16 34 1
18 12 17 ar
19 17 18 ar
20 19 23 ar
21 14 20 ar
22 21 24 ar
23 9 22 ar
24 22 24 ar
25 20 23 ar
26 23 24 ar
27 7 25 1
28 22 25 1
29 6 26 1
30 26 28 1
31 5 27 ar
32 10 28 1
33 29 32 1
34 25 30 1
35 26 31 1
36 30 32 1
37 32 33 1
38 18 33 1
39 31 33 1
@<TRIPOS>SUBSTRUCTURE
1	LIG1	1	GROUP	1 C	LIG
