# created with PyMOL 3.1.3.1
@<TRIPOS>MOLECULE
predicted
34 39 1                 
SMALL
USER_CHARGES
@<TRIPOS>ATOM
1	CL25	13.472	-1.935	21.997	Cl	1	LIG1	0.000	
2	 O23	10.130	3.559	23.805	O.2	1	LIG1	0.000	
3	 O24	8.533	1.472	20.958	O.2	1	LIG1	0.000	
4	 N26	6.218	0.126	17.520	N.2	1	LIG1	0.000	
5	 N27	5.391	3.925	23.532	N.2	1	LIG1	0.000	
6	 C28	9.760	2.376	23.735	C.2	1	LIG1	0.000	
7	 C29	8.139	0.446	21.515	C.2	1	LIG1	0.000	
8	 C30	6.902	-0.225	18.596	C.2	1	LIG1	0.000	
9	 C31	6.672	3.681	23.433	C.2	1	LIG1	0.000	
10	 C32	12.900	0.520	22.841	C.2	1	LIG1	0.000	
11	 C33	12.056	1.538	23.220	C.2	1	LIG1	0.000	
12	 C34	11.003	-0.934	22.419	C.2	1	LIG1	0.000	
13	 C35	2.644	1.761	20.300	C.2	1	LIG1	0.000	
14	 C36	3.330	1.386	21.444	C.2	1	LIG1	0.000	
15	 C37	7.140	4.112	22.223	C.2	1	LIG1	0.000	
16	 C38	12.385	-0.701	22.445	C.2	1	LIG1	0.000	
17	 C39	10.680	1.314	23.256	C.2	1	LIG1	0.000	
18	 C40	10.157	0.063	22.886	C.2	1	LIG1	0.000	
19	 C41	5.009	0.700	17.636	C.2	1	LIG1	0.000	
20	 C42	3.199	1.540	19.046	C.2	1	LIG1	0.000	
21	 C43	4.551	0.809	21.334	C.2	1	LIG1	0.000	
22	 C44	6.416	-0.002	19.883	C.2	1	LIG1	0.000	
23	 C45	6.016	4.607	21.542	C.2	1	LIG1	0.000	
24	 C46	4.442	0.946	18.911	C.2	1	LIG1	0.000	
25	 C47	5.135	0.584	20.069	C.2	1	LIG1	0.000	
26	 N48	7.173	-0.339	20.997	N.pl3	1	LIG1	0.000	
27	 N49	8.424	2.048	24.033	N.pl3	1	LIG1	0.000	
28	 N50	5.005	4.479	22.358	N.2	1	LIG1	0.000	
29	 C51	7.522	3.061	24.543	C.3	1	LIG1	0.000	
30	 C52	3.677	4.903	22.087	C.3	1	LIG1	0.000	
31	 C53	7.063	-1.585	21.730	C.3	1	LIG1	0.000	
32	 C54	7.973	0.655	24.018	C.3	1	LIG1	0.000	
33	 C55	8.160	-1.475	22.827	C.3	1	LIG1	0.000	
34	 C56	8.655	-0.088	22.830	C.3	1	LIG1	0.000	
@<TRIPOS>BOND
1 4 19 ar
2 2 6 2
3 3 7 2
4 4 8 ar
5 5 9 ar
6 9 29 1
7 10 11 ar
8 11 17 ar
9 12 16 ar
10 13 14 ar
11 14 21 ar
12 9 15 ar
13 1 16 1
14 10 16 ar
15 6 17 1
16 12 18 ar
17 17 18 ar
18 19 24 ar
19 13 20 ar
20 21 25 ar
21 8 22 ar
22 22 25 ar
23 15 23 ar
24 20 24 ar
25 24 25 ar
26 7 26 1
27 22 26 1
28 6 27 1
29 27 32 1
30 5 28 ar
31 23 28 ar
32 27 29 1
33 28 30 1
34 26 31 1
35 32 34 1
36 31 33 1
37 7 34 1
38 18 34 1
39 33 34 1
@<TRIPOS>SUBSTRUCTURE
1	LIG1	1	GROUP	1 C	LIG
