# created with PyMOL 3.1.3.1
@<TRIPOS>MOLECULE
predicted
32 37 1                 
SMALL
USER_CHARGES
@<TRIPOS>ATOM
1	CL27	13.393	-2.044	21.952	Cl	1	LIG1	0.000	
2	 O25	10.271	3.648	23.367	O.2	1	LIG1	0.000	
3	 O26	8.508	1.490	20.666	O.2	1	LIG1	0.000	
4	 N28	6.090	0.166	17.356	N.2	1	LIG1	0.000	
5	 C29	9.828	2.518	23.320	C.2	1	LIG1	0.000	
6	 C30	8.134	0.493	21.239	C.2	1	LIG1	0.000	
7	 C31	6.784	-0.205	18.405	C.2	1	LIG1	0.000	
8	 C32	12.882	0.476	22.701	C.2	1	LIG1	0.000	
9	 C33	12.067	1.535	22.992	C.2	1	LIG1	0.000	
10	 C34	10.949	-0.909	22.262	C.2	1	LIG1	0.000	
11	 C35	2.673	1.960	20.234	C.2	1	LIG1	0.000	
12	 C36	3.365	1.554	21.348	C.2	1	LIG1	0.000	
13	 C37	12.336	-0.736	22.329	C.2	1	LIG1	0.000	
14	 C38	10.699	1.380	22.971	C.2	1	LIG1	0.000	
15	 C39	10.127	0.147	22.656	C.2	1	LIG1	0.000	
16	 C40	4.919	0.781	17.518	C.2	1	LIG1	0.000	
17	 C41	3.187	1.720	18.965	C.2	1	LIG1	0.000	
18	 C42	4.547	0.900	21.203	C.2	1	LIG1	0.000	
19	 C43	6.347	-0.002	19.719	C.2	1	LIG1	0.000	
20	 C44	4.392	1.063	18.793	C.2	1	LIG1	0.000	
21	 C45	5.102	0.668	19.927	C.2	1	LIG1	0.000	
22	 N46	7.136	-0.313	20.789	N.pl3	1	LIG1	0.000	
23	 N47	8.465	2.307	23.521	N.pl3	1	LIG1	0.000	
24	 C48	7.566	3.397	23.818	C.3	1	LIG1	0.000	
25	 C49	7.940	-2.025	23.900	C.3	1	LIG1	0.000	
26	 C50	7.021	-1.480	21.593	C.3	1	LIG1	0.000	
27	 C51	7.982	0.929	23.650	C.3	1	LIG1	0.000	
28	 C52	6.191	3.143	23.161	C.3	1	LIG1	0.000	
29	 C53	7.719	4.542	22.727	C.3	1	LIG1	0.000	
30	 C54	8.136	-1.373	22.610	C.3	1	LIG1	0.000	
31	 C55	8.630	0.026	22.579	C.3	1	LIG1	0.000	
32	 N56	6.422	4.207	21.970	N.3	1	LIG1	0.000	
@<TRIPOS>BOND
1 4 16 ar
2 2 5 2
3 5 14 1
4 3 6 2
5 6 31 1
6 4 7 ar
7 8 13 ar
8 8 9 ar
9 10 15 ar
10 11 12 ar
11 12 18 ar
12 1 13 1
13 10 13 ar
14 9 14 ar
15 14 15 ar
16 16 20 ar
17 11 17 ar
18 18 21 ar
19 7 19 ar
20 19 21 ar
21 17 20 ar
22 20 21 ar
23 6 22 1
24 19 22 1
25 5 23 1
26 23 24 1
27 24 28 1
28 24 29 1
29 25 30 1
30 22 26 1
31 23 27 1
32 28 32 1
33 26 30 1
34 30 31 1
35 15 31 1
36 27 31 1
37 29 32 1
@<TRIPOS>SUBSTRUCTURE
1	LIG1	1	GROUP	1 C	LIG
