# created with PyMOL 3.1.3.1
@<TRIPOS>MOLECULE
predicted
26 29 1                 
SMALL
USER_CHARGES
@<TRIPOS>ATOM
1	CL18	-13.503	-0.552	-24.508	Cl	1	LIG1	0.000	
2	CL19	-13.243	-2.910	-22.501	Cl	1	LIG1	0.000	
3	 O17	-8.183	-0.446	-21.247	O.2	1	LIG1	0.000	
4	 N20	-5.777	-0.550	-17.777	N.2	1	LIG1	0.000	
5	 O21	-6.460	-5.268	-22.260	O.3	1	LIG1	0.000	
6	 C22	-7.663	-1.497	-21.637	C.2	1	LIG1	0.000	
7	 C23	-6.329	-1.222	-18.748	C.2	1	LIG1	0.000	
8	 C24	-10.831	-0.470	-24.509	C.2	1	LIG1	0.000	
9	 C25	-9.605	-0.866	-24.107	C.2	1	LIG1	0.000	
10	 C26	-10.642	-2.555	-22.677	C.2	1	LIG1	0.000	
11	 C27	-2.450	1.104	-20.798	C.2	1	LIG1	0.000	
12	 C28	-3.006	0.401	-21.834	C.2	1	LIG1	0.000	
13	 C29	-11.976	-1.079	-24.014	C.2	1	LIG1	0.000	
14	 C30	-11.877	-2.125	-23.086	C.2	1	LIG1	0.000	
15	 C31	-9.545	-1.912	-23.166	C.2	1	LIG1	0.000	
16	 C32	-4.689	0.180	-18.008	C.2	1	LIG1	0.000	
17	 C33	-2.996	1.051	-19.543	C.2	1	LIG1	0.000	
18	 C34	-4.106	-0.355	-21.626	C.2	1	LIG1	0.000	
19	 C35	-5.870	-1.183	-20.059	C.2	1	LIG1	0.000	
20	 C36	-4.123	0.279	-19.296	C.2	1	LIG1	0.000	
21	 C37	-4.695	-0.434	-20.344	C.2	1	LIG1	0.000	
22	 N38	-6.479	-1.940	-21.097	N.pl3	1	LIG1	0.000	
23	 C39	-5.897	-3.157	-21.486	C.3	1	LIG1	0.000	
24	 C40	-7.740	-3.545	-23.078	C.3	1	LIG1	0.000	
25	 C41	-6.415	-3.905	-22.630	C.3	1	LIG1	0.000	
26	 C42	-8.200	-2.308	-22.708	C.3	1	LIG1	0.000	
@<TRIPOS>BOND
1 3 6 2
2 4 16 ar
3 6 22 1
4 6 26 1
5 4 7 ar
6 8 13 ar
7 8 9 ar
8 11 12 ar
9 12 18 ar
10 1 13 1
11 13 14 ar
12 2 14 1
13 10 14 ar
14 9 15 ar
15 10 15 ar
16 16 20 ar
17 11 17 ar
18 18 21 ar
19 7 19 ar
20 19 21 ar
21 17 20 ar
22 20 21 ar
23 19 22 1
24 22 23 1
25 24 25 1
26 5 25 1
27 23 25 1
28 15 26 1
29 24 26 1
@<TRIPOS>SUBSTRUCTURE
1	LIG1	1	GROUP	1 C	LIG
