# created with PyMOL 3.1.3.1
@<TRIPOS>MOLECULE
predicted
38 43 1                 
SMALL
USER_CHARGES
@<TRIPOS>ATOM
1	CL29	13.489	-1.937	22.145	Cl	1	LIG1	0.000	
2	 O26	9.996	3.534	23.459	O.2	1	LIG1	0.000	
3	 O27	6.536	4.970	23.936	O.2	1	LIG1	0.000	
4	 O28	8.498	1.383	20.729	O.2	1	LIG1	0.000	
5	 N30	6.127	-0.096	17.341	N.2	1	LIG1	0.000	
6	 N31	6.410	-4.038	23.956	N.2	1	LIG1	0.000	
7	 C32	9.635	2.365	23.423	C.2	1	LIG1	0.000	
8	 C33	6.959	4.121	23.312	C.2	1	LIG1	0.000	
9	 C34	8.119	0.351	21.271	C.2	1	LIG1	0.000	
10	 C35	6.495	-5.366	23.836	C.2	1	LIG1	0.000	
11	 C36	6.825	-0.427	18.413	C.2	1	LIG1	0.000	
12	 C37	12.818	0.504	22.843	C.2	1	LIG1	0.000	
13	 C38	11.948	1.522	23.118	C.2	1	LIG1	0.000	
14	 C39	10.977	-0.963	22.369	C.2	1	LIG1	0.000	
15	 C40	2.734	1.834	20.136	C.2	1	LIG1	0.000	
16	 C41	3.443	1.500	21.267	C.2	1	LIG1	0.000	
17	 C42	7.800	-5.792	23.696	C.2	1	LIG1	0.000	
18	 C43	12.343	-0.738	22.455	C.2	1	LIG1	0.000	
19	 C44	10.584	1.304	23.072	C.2	1	LIG1	0.000	
20	 C45	10.088	0.035	22.725	C.2	1	LIG1	0.000	
21	 C46	4.956	0.510	17.482	C.2	1	LIG1	0.000	
22	 C47	3.232	1.508	18.883	C.2	1	LIG1	0.000	
23	 C48	4.620	0.846	21.157	C.2	1	LIG1	0.000	
24	 C49	6.374	-0.156	19.708	C.2	1	LIG1	0.000	
25	 C50	8.568	-4.604	23.718	C.2	1	LIG1	0.000	
26	 C51	4.425	0.852	18.741	C.2	1	LIG1	0.000	
27	 C52	5.145	0.522	19.904	C.2	1	LIG1	0.000	
28	 N53	7.109	4.311	22.021	N.pl3	1	LIG1	0.000	
29	 N54	7.151	-0.468	20.800	N.pl3	1	LIG1	0.000	
30	 N55	8.265	2.020	23.621	N.pl3	1	LIG1	0.000	
31	 N56	7.674	-3.607	23.827	N.2	1	LIG1	0.000	
32	 C57	6.689	5.516	21.370	C.3	1	LIG1	0.000	
33	 C58	7.229	2.876	23.980	C.3	1	LIG1	0.000	
34	 C59	7.040	-1.644	21.576	C.3	1	LIG1	0.000	
35	 C60	7.976	-2.189	23.924	C.3	1	LIG1	0.000	
36	 C61	7.862	0.673	23.701	C.3	1	LIG1	0.000	
37	 C62	8.148	-1.579	22.610	C.3	1	LIG1	0.000	
38	 C63	8.593	-0.150	22.613	C.3	1	LIG1	0.000	
@<TRIPOS>BOND
1 5 21 ar
2 2 7 2
3 3 8 2
4 8 33 1
5 4 9 2
6 9 29 1
7 6 10 ar
8 5 11 ar
9 12 13 ar
10 13 19 ar
11 14 18 ar
12 15 16 ar
13 16 23 ar
14 10 17 ar
15 1 18 1
16 12 18 ar
17 7 19 1
18 14 20 ar
19 19 20 ar
20 21 26 ar
21 15 22 ar
22 23 27 ar
23 11 24 ar
24 24 27 ar
25 17 25 ar
26 22 26 ar
27 26 27 ar
28 8 28 1
29 24 29 1
30 29 34 1
31 7 30 1
32 30 36 1
33 6 31 ar
34 25 31 ar
35 28 32 1
36 30 33 1
37 34 37 1
38 31 35 1
39 36 38 1
40 35 37 1
41 9 38 1
42 20 38 1
43 37 38 1
@<TRIPOS>SUBSTRUCTURE
1	LIG1	1	GROUP	1 C	LIG
