# created with PyMOL 3.1.3.1
@<TRIPOS>MOLECULE
predicted
35 40 1                 
SMALL
USER_CHARGES
@<TRIPOS>ATOM
1	 O24	10.253	3.150	23.830	O.2	1	LIG1	0.000	
2	 O25	8.557	1.206	20.912	O.2	1	LIG1	0.000	
3	 N27	6.100	0.000	17.478	N.2	1	LIG1	0.000	
4	 N28	6.440	4.575	21.547	N.2	1	LIG1	0.000	
5	 N29	5.586	3.712	23.363	N.2	1	LIG1	0.000	
6	 C30	9.847	1.981	23.685	C.2	1	LIG1	0.000	
7	 C31	8.173	0.154	21.394	C.2	1	LIG1	0.000	
8	 C32	7.428	3.989	22.278	C.2	1	LIG1	0.000	
9	 C33	6.811	-0.396	18.515	C.2	1	LIG1	0.000	
10	 C34	6.870	3.446	23.389	C.2	1	LIG1	0.000	
11	 C35	12.950	0.082	22.747	C.2	1	LIG1	0.000	
12	 C36	12.130	1.100	23.166	C.2	1	LIG1	0.000	
13	 C37	11.034	-1.304	22.238	C.2	1	LIG1	0.000	
14	 C38	2.706	1.694	20.439	C.2	1	LIG1	0.000	
15	 C39	3.426	1.265	21.540	C.2	1	LIG1	0.000	
16	 C40	12.426	-1.110	22.285	C.2	1	LIG1	0.000	
17	 C41	10.750	0.917	23.171	C.2	1	LIG1	0.000	
18	 C42	10.195	-0.314	22.754	C.2	1	LIG1	0.000	
19	 C43	4.924	0.600	17.668	C.2	1	LIG1	0.000	
20	 C44	3.198	1.475	19.160	C.2	1	LIG1	0.000	
21	 C45	4.622	0.647	21.369	C.2	1	LIG1	0.000	
22	 C46	6.385	-0.203	19.830	C.2	1	LIG1	0.000	
23	 C47	4.407	0.843	18.958	C.2	1	LIG1	0.000	
24	 C48	5.141	0.430	20.078	C.2	1	LIG1	0.000	
25	 N49	7.168	-0.591	20.896	N.pl3	1	LIG1	0.000	
26	 N50	8.493	1.685	23.937	N.pl3	1	LIG1	0.000	
27	 N51	5.341	4.395	22.207	N.2	1	LIG1	0.000	
28	 C52	7.612	2.675	24.489	C.3	1	LIG1	0.000	
29	 C53	4.089	4.904	21.807	C.3	1	LIG1	0.000	
30	 C54	8.044	-2.637	23.826	C.3	1	LIG1	0.000	
31	 C55	7.031	-1.831	21.607	C.3	1	LIG1	0.000	
32	 C56	8.010	0.312	23.873	C.3	1	LIG1	0.000	
33	 C57	8.187	-1.857	22.583	C.3	1	LIG1	0.000	
34	 C58	8.688	-0.448	22.695	C.3	1	LIG1	0.000	
35	 F26	13.264	-2.061	21.881	 F	1	LIG1	0.000	
@<TRIPOS>BOND
1 3 19 ar
2 4 27 ar
3 1 6 2
4 6 17 1
5 2 7 2
6 7 34 1
7 4 8 ar
8 3 9 ar
9 5 10 ar
10 8 10 ar
11 11 16 ar
12 11 12 ar
13 13 18 ar
14 14 15 ar
15 15 21 ar
16 13 16 ar
17 16 35 1
18 12 17 ar
19 17 18 ar
20 19 23 ar
21 14 20 ar
22 21 24 ar
23 9 22 ar
24 22 24 ar
25 20 23 ar
26 23 24 ar
27 7 25 1
28 22 25 1
29 6 26 1
30 26 28 1
31 5 27 ar
32 27 29 1
33 10 28 1
34 30 33 1
35 25 31 1
36 26 32 1
37 31 33 1
38 33 34 1
39 18 34 1
40 32 34 1
@<TRIPOS>SUBSTRUCTURE
1	LIG1	1	GROUP	1 C	LIG
