# created with PyMOL 3.1.3.1
@<TRIPOS>MOLECULE
predicted
37 41 1                 
SMALL
USER_CHARGES
@<TRIPOS>ATOM
1	CL33	-13.229	-3.098	-21.842	Cl	1	LIG1	0.000	
2	 O30	-10.672	2.529	-24.332	O.2	1	LIG1	0.000	
3	 O31	-5.869	2.354	-24.150	O.2	1	LIG1	0.000	
4	 O32	-8.532	0.751	-21.436	O.2	1	LIG1	0.000	
5	 N34	-6.143	-0.587	-17.943	N.2	1	LIG1	0.000	
6	 O35	-7.744	-4.247	-24.462	O.3	1	LIG1	0.000	
7	 C36	-10.127	1.405	-24.189	C.2	1	LIG1	0.000	
8	 C37	-6.955	2.822	-24.068	C.2	1	LIG1	0.000	
9	 C38	-8.130	-0.301	-21.930	C.2	1	LIG1	0.000	
10	 C39	-6.816	-0.979	-19.016	C.2	1	LIG1	0.000	
11	 C40	-12.953	-0.698	-22.994	C.2	1	LIG1	0.000	
12	 C41	-12.253	0.337	-23.526	C.2	1	LIG1	0.000	
13	 C42	-10.886	-1.898	-22.549	C.2	1	LIG1	0.000	
14	 C43	-2.762	1.385	-20.776	C.2	1	LIG1	0.000	
15	 C44	-3.429	0.962	-21.914	C.2	1	LIG1	0.000	
16	 C45	-12.273	-1.820	-22.484	C.2	1	LIG1	0.000	
17	 C46	-10.875	0.278	-23.608	C.2	1	LIG1	0.000	
18	 C47	-10.184	-0.886	-23.179	C.2	1	LIG1	0.000	
19	 C48	-4.980	0.073	-18.091	C.2	1	LIG1	0.000	
20	 C49	-3.277	1.095	-19.502	C.2	1	LIG1	0.000	
21	 C50	-4.599	0.268	-21.807	C.2	1	LIG1	0.000	
22	 C51	-6.346	-0.729	-20.319	C.2	1	LIG1	0.000	
23	 C52	-4.444	0.391	-19.362	C.2	1	LIG1	0.000	
24	 C53	-5.130	-0.019	-20.534	C.2	1	LIG1	0.000	
25	 N54	-7.292	3.662	-23.083	N.pl3	1	LIG1	0.000	
26	 N55	-7.130	-1.079	-21.418	N.pl3	1	LIG1	0.000	
27	 N56	-8.771	1.267	-24.464	N.pl3	1	LIG1	0.000	
28	 C57	-6.333	4.138	-22.141	C.3	1	LIG1	0.000	
29	 C58	-8.044	2.388	-25.024	C.3	1	LIG1	0.000	
30	 C59	-8.109	-4.320	-26.904	C.3	1	LIG1	0.000	
31	 C60	-7.470	-6.345	-25.500	C.3	1	LIG1	0.000	
32	 C61	-8.122	-5.036	-25.583	C.3	1	LIG1	0.000	
33	 C62	-8.213	-3.000	-24.429	C.3	1	LIG1	0.000	
34	 C63	-6.987	-2.295	-22.169	C.3	1	LIG1	0.000	
35	 C64	-8.160	-0.057	-24.437	C.3	1	LIG1	0.000	
36	 C65	-8.069	-2.281	-23.170	C.3	1	LIG1	0.000	
37	 C66	-8.665	-0.903	-23.206	C.3	1	LIG1	0.000	
@<TRIPOS>BOND
1 5 19 ar
2 6 32 1
3 2 7 2
4 3 8 2
5 8 29 1
6 4 9 2
7 9 26 1
8 5 10 ar
9 11 12 ar
10 12 17 ar
11 13 16 ar
12 14 15 ar
13 15 21 ar
14 1 16 1
15 11 16 ar
16 7 17 1
17 13 18 ar
18 17 18 ar
19 19 23 ar
20 14 20 ar
21 21 24 ar
22 10 22 ar
23 22 24 ar
24 20 23 ar
25 23 24 ar
26 8 25 1
27 22 26 1
28 26 34 1
29 7 27 1
30 27 35 1
31 25 28 1
32 27 29 1
33 30 32 1
34 31 32 1
35 6 33 1
36 34 36 1
37 35 37 1
38 33 36 1
39 9 37 1
40 18 37 1
41 36 37 1
@<TRIPOS>SUBSTRUCTURE
1	LIG1	1	GROUP	1 C	LIG
