# created with PyMOL 3.1.3.1
@<TRIPOS>MOLECULE
predicted
35 40 1                 
SMALL
USER_CHARGES
@<TRIPOS>ATOM
1	CL29	-13.910	-3.667	-22.384	Cl	1	LIG1	0.000	
2	 O26	-10.838	1.997	-24.116	O.2	1	LIG1	0.000	
3	 O27	-6.495	3.037	-23.653	O.2	1	LIG1	0.000	
4	 O28	-9.103	0.124	-21.219	O.2	1	LIG1	0.000	
5	 N30	-6.662	-1.025	-17.701	N.2	1	LIG1	0.000	
6	 C31	-10.382	0.855	-23.994	C.2	1	LIG1	0.000	
7	 C32	-7.594	2.626	-23.668	C.2	1	LIG1	0.000	
8	 C33	-8.697	-0.933	-21.675	C.2	1	LIG1	0.000	
9	 C34	-7.340	-1.460	-18.731	C.2	1	LIG1	0.000	
10	 C35	-13.433	-1.201	-23.252	C.2	1	LIG1	0.000	
11	 C36	-12.635	-0.131	-23.604	C.2	1	LIG1	0.000	
12	 C37	-11.492	-2.497	-22.654	C.2	1	LIG1	0.000	
13	 C38	-3.299	0.727	-20.688	C.2	1	LIG1	0.000	
14	 C39	-4.012	0.275	-21.780	C.2	1	LIG1	0.000	
15	 C40	-12.875	-2.375	-22.767	C.2	1	LIG1	0.000	
16	 C41	-11.252	-0.254	-23.530	C.2	1	LIG1	0.000	
17	 C42	-10.667	-1.462	-23.089	C.2	1	LIG1	0.000	
18	 C43	-5.497	-0.395	-17.894	C.2	1	LIG1	0.000	
19	 C44	-3.784	0.514	-19.401	C.2	1	LIG1	0.000	
20	 C45	-5.180	-0.375	-21.597	C.2	1	LIG1	0.000	
21	 C46	-6.924	-1.258	-20.054	C.2	1	LIG1	0.000	
22	 C47	-4.974	-0.150	-19.190	C.2	1	LIG1	0.000	
23	 C48	-5.698	-0.596	-20.307	C.2	1	LIG1	0.000	
24	 N49	-8.350	3.088	-22.690	N.pl3	1	LIG1	0.000	
25	 N50	-7.695	-1.678	-21.126	N.pl3	1	LIG1	0.000	
26	 N51	-9.007	0.608	-24.201	N.pl3	1	LIG1	0.000	
27	 C52	-7.900	4.043	-21.704	C.3	1	LIG1	0.000	
28	 C53	-7.879	1.777	-26.153	C.3	1	LIG1	0.000	
29	 C54	-6.924	1.074	-25.501	C.3	1	LIG1	0.000	
30	 C55	-8.158	1.676	-24.755	C.3	1	LIG1	0.000	
31	 C56	-8.404	-3.747	-24.033	C.3	1	LIG1	0.000	
32	 C57	-7.552	-2.924	-21.781	C.3	1	LIG1	0.000	
33	 C58	-8.490	-0.769	-24.105	C.3	1	LIG1	0.000	
34	 C59	-8.642	-2.939	-22.818	C.3	1	LIG1	0.000	
35	 C60	-9.163	-1.538	-22.954	C.3	1	LIG1	0.000	
@<TRIPOS>BOND
1 5 18 ar
2 2 6 2
3 3 7 2
4 7 30 1
5 4 8 2
6 8 25 1
7 5 9 ar
8 10 11 ar
9 11 16 ar
10 12 15 ar
11 13 14 ar
12 14 20 ar
13 1 15 1
14 10 15 ar
15 6 16 1
16 12 17 ar
17 16 17 ar
18 18 22 ar
19 13 19 ar
20 20 23 ar
21 9 21 ar
22 21 23 ar
23 19 22 ar
24 22 23 ar
25 7 24 1
26 21 25 1
27 25 32 1
28 6 26 1
29 26 33 1
30 24 27 1
31 28 29 1
32 26 30 1
33 28 30 1
34 29 30 1
35 32 34 1
36 33 35 1
37 31 34 1
38 8 35 1
39 17 35 1
40 34 35 1
@<TRIPOS>SUBSTRUCTURE
1	LIG1	1	GROUP	1 C	LIG
