# created with PyMOL 3.1.3.1
@<TRIPOS>MOLECULE
predicted
35 40 1                 
SMALL
USER_CHARGES
@<TRIPOS>ATOM
1	 O24	10.530	2.995	24.091	O.2	1	LIG1	0.000	
2	 O25	8.768	1.222	21.030	O.2	1	LIG1	0.000	
3	 N27	5.577	3.989	22.336	N.2	1	LIG1	0.000	
4	 N28	6.270	0.079	17.550	N.2	1	LIG1	0.000	
5	 O29	5.947	3.088	23.307	O.2	1	LIG1	0.000	
6	 C30	10.103	1.854	23.874	C.2	1	LIG1	0.000	
7	 C31	8.375	0.164	21.471	C.2	1	LIG1	0.000	
8	 C32	6.988	-0.332	18.570	C.2	1	LIG1	0.000	
9	 C33	6.565	4.843	22.171	C.2	1	LIG1	0.000	
10	 C34	7.161	3.357	23.659	C.2	1	LIG1	0.000	
11	 C35	7.610	4.463	22.991	C.2	1	LIG1	0.000	
12	 C36	13.174	-0.034	22.842	C.2	1	LIG1	0.000	
13	 C37	12.368	0.966	23.322	C.2	1	LIG1	0.000	
14	 C38	11.235	-1.348	22.237	C.2	1	LIG1	0.000	
15	 C39	2.839	1.670	20.538	C.2	1	LIG1	0.000	
16	 C40	3.565	1.234	21.635	C.2	1	LIG1	0.000	
17	 C41	12.630	-1.182	22.295	C.2	1	LIG1	0.000	
18	 C42	10.979	0.812	23.312	C.2	1	LIG1	0.000	
19	 C43	10.395	-0.374	22.813	C.2	1	LIG1	0.000	
20	 C44	5.076	0.656	17.756	C.2	1	LIG1	0.000	
21	 C45	3.332	1.470	19.256	C.2	1	LIG1	0.000	
22	 C46	4.773	0.630	21.459	C.2	1	LIG1	0.000	
23	 C47	6.563	-0.158	19.902	C.2	1	LIG1	0.000	
24	 C48	4.554	0.864	19.048	C.2	1	LIG1	0.000	
25	 C49	5.296	0.445	20.159	C.2	1	LIG1	0.000	
26	 N50	7.355	-0.564	20.959	N.pl3	1	LIG1	0.000	
27	 N51	8.744	1.573	24.097	N.pl3	1	LIG1	0.000	
28	 C52	6.479	6.000	21.245	C.3	1	LIG1	0.000	
29	 C53	7.905	2.540	24.722	C.3	1	LIG1	0.000	
30	 C54	8.271	-2.698	23.817	C.3	1	LIG1	0.000	
31	 C55	7.202	-1.816	21.627	C.3	1	LIG1	0.000	
32	 C56	8.233	0.222	23.956	C.3	1	LIG1	0.000	
33	 C57	8.380	-1.890	22.588	C.3	1	LIG1	0.000	
34	 C58	8.895	-0.484	22.746	C.3	1	LIG1	0.000	
35	 F26	13.454	-2.113	21.849	 F	1	LIG1	0.000	
@<TRIPOS>BOND
1 4 20 ar
2 3 5 ar
3 1 6 2
4 2 7 2
5 7 26 1
6 4 8 ar
7 3 9 ar
8 9 11 ar
9 5 10 ar
10 10 29 1
11 10 11 ar
12 12 13 ar
13 13 18 ar
14 14 17 ar
15 15 16 ar
16 16 22 ar
17 12 17 ar
18 17 35 1
19 6 18 1
20 14 19 ar
21 18 19 ar
22 20 24 ar
23 15 21 ar
24 22 25 ar
25 8 23 ar
26 23 25 ar
27 21 24 ar
28 24 25 ar
29 23 26 1
30 26 31 1
31 6 27 1
32 27 32 1
33 9 28 1
34 27 29 1
35 31 33 1
36 32 34 1
37 30 33 1
38 7 34 1
39 19 34 1
40 33 34 1
@<TRIPOS>SUBSTRUCTURE
1	LIG1	1	GROUP	1 C	LIG
