# created with PyMOL 3.1.3.1
@<TRIPOS>MOLECULE
predicted
21 23 1                 
SMALL
USER_CHARGES
@<TRIPOS>ATOM
1	 O21	-8.456	0.682	-21.402	O.2	1	LIG1	0.000	
2	 N22	-6.224	-0.511	-17.886	N.2	1	LIG1	0.000	
3	 C23	-8.370	-0.423	-21.886	C.2	1	LIG1	0.000	
4	 C24	-11.022	0.641	-23.488	C.3	1	LIG1	0.000	
5	 C25	-12.069	-0.397	-23.488	C.3	1	LIG1	0.000	
6	 C26	-6.948	-1.047	-18.887	C.2	1	LIG1	0.000	
7	 C27	-3.042	1.185	-20.990	C.2	1	LIG1	0.000	
8	 C28	-3.761	0.670	-22.031	C.2	1	LIG1	0.000	
9	 C29	-5.122	0.122	-18.111	C.2	1	LIG1	0.000	
10	 C30	-3.476	1.018	-19.679	C.2	1	LIG1	0.000	
11	 C31	-4.929	0.007	-21.808	C.2	1	LIG1	0.000	
12	 C32	-6.588	-0.905	-20.192	C.2	1	LIG1	0.000	
13	 C33	-4.649	0.332	-19.416	C.2	1	LIG1	0.000	
14	 C34	-5.392	-0.196	-20.505	C.2	1	LIG1	0.000	
15	 N35	-9.043	-0.700	-23.084	N.pl3	1	LIG1	0.000	
16	 C36	-7.479	-1.480	-21.271	C.3	1	LIG1	0.000	
17	 C37	-9.611	0.309	-23.942	C.3	1	LIG1	0.000	
18	 C38	-9.304	-2.031	-23.566	C.3	1	LIG1	0.000	
19	 C39	-13.069	-2.657	-22.995	C.3	1	LIG1	0.000	
20	 C40	-10.599	-2.504	-22.964	C.3	1	LIG1	0.000	
21	 C41	-11.839	-1.921	-23.569	C.3	1	LIG1	0.000	
@<TRIPOS>BOND
1 2 9 ar
2 1 3 2
3 3 16 1
4 4 17 1
5 4 5 1
6 2 6 ar
7 7 8 ar
8 8 11 ar
9 9 13 ar
10 7 10 ar
11 11 14 ar
12 6 12 ar
13 12 14 ar
14 10 13 ar
15 13 14 ar
16 3 15 1
17 15 18 1
18 12 16 1
19 15 17 1
20 18 20 1
21 19 21 1
22 5 21 1
23 20 21 1
@<TRIPOS>SUBSTRUCTURE
1	LIG1	1	GROUP	1 C	LIG
