# created with PyMOL 3.1.3.1
@<TRIPOS>MOLECULE
predicted
34 39 1                 
SMALL
USER_CHARGES
@<TRIPOS>ATOM
1	 O22	-10.498	2.245	-24.419	O.2	1	LIG1	0.000	
2	 O23	-8.518	0.531	-21.427	O.2	1	LIG1	0.000	
3	 N25	-6.161	-0.539	-17.893	N.2	1	LIG1	0.000	
4	 N26	-7.536	3.342	-22.911	N.2	1	LIG1	0.000	
5	 N27	-5.773	2.597	-23.830	N.2	1	LIG1	0.000	
6	 C28	-9.999	1.124	-24.226	C.2	1	LIG1	0.000	
7	 C29	-8.115	-0.518	-21.878	C.2	1	LIG1	0.000	
8	 C30	-7.057	2.657	-23.959	C.2	1	LIG1	0.000	
9	 C31	-6.829	-0.980	-18.937	C.2	1	LIG1	0.000	
10	 C32	-12.917	-0.853	-23.025	C.2	1	LIG1	0.000	
11	 C33	-12.172	0.153	-23.573	C.2	1	LIG1	0.000	
12	 C34	-10.893	-2.109	-22.521	C.2	1	LIG1	0.000	
13	 C35	-2.694	1.149	-20.776	C.2	1	LIG1	0.000	
14	 C36	-3.343	0.662	-21.893	C.2	1	LIG1	0.000	
15	 C37	-12.293	-1.987	-22.502	C.2	1	LIG1	0.000	
16	 C38	-10.786	0.041	-23.619	C.2	1	LIG1	0.000	
17	 C39	-10.142	-1.118	-23.153	C.2	1	LIG1	0.000	
18	 C40	-4.983	0.081	-18.063	C.2	1	LIG1	0.000	
19	 C41	-3.227	0.960	-19.504	C.2	1	LIG1	0.000	
20	 C42	-4.535	0.017	-21.749	C.2	1	LIG1	0.000	
21	 C43	-6.351	-0.824	-20.254	C.2	1	LIG1	0.000	
22	 C44	-6.491	3.687	-22.129	C.2	1	LIG1	0.000	
23	 C45	-4.429	0.302	-19.337	C.2	1	LIG1	0.000	
24	 C46	-5.107	-0.164	-20.476	C.2	1	LIG1	0.000	
25	 N47	-7.106	-1.233	-21.334	N.pl3	1	LIG1	0.000	
26	 N48	-8.657	0.925	-24.476	N.pl3	1	LIG1	0.000	
27	 N49	-5.426	3.231	-22.665	N.2	1	LIG1	0.000	
28	 C50	-7.873	1.964	-25.083	C.3	1	LIG1	0.000	
29	 C51	-8.062	-3.388	-24.206	C.3	1	LIG1	0.000	
30	 C52	-6.955	-2.498	-22.007	C.3	1	LIG1	0.000	
31	 C53	-8.059	-0.415	-24.367	C.3	1	LIG1	0.000	
32	 C54	-8.074	-2.558	-23.003	C.3	1	LIG1	0.000	
33	 C55	-8.642	-1.173	-23.134	C.3	1	LIG1	0.000	
34	 F24	-13.038	-2.947	-21.981	 F	1	LIG1	0.000	
@<TRIPOS>BOND
1 3 18 ar
2 4 22 ar
3 1 6 2
4 6 16 1
5 2 7 2
6 7 33 1
7 4 8 ar
8 5 8 ar
9 3 9 ar
10 10 15 ar
11 10 11 ar
12 12 17 ar
13 13 14 ar
14 14 20 ar
15 12 15 ar
16 15 34 1
17 11 16 ar
18 16 17 ar
19 18 23 ar
20 13 19 ar
21 20 24 ar
22 9 21 ar
23 21 24 ar
24 22 27 ar
25 19 23 ar
26 23 24 ar
27 7 25 1
28 21 25 1
29 6 26 1
30 26 28 1
31 5 27 ar
32 8 28 1
33 29 32 1
34 25 30 1
35 26 31 1
36 30 32 1
37 32 33 1
38 17 33 1
39 31 33 1
@<TRIPOS>SUBSTRUCTURE
1	LIG1	1	GROUP	1 C	LIG
