# created with PyMOL 3.1.3.1
@<TRIPOS>MOLECULE
predicted
34 39 1                 
SMALL
USER_CHARGES
@<TRIPOS>ATOM
1	 O22	-10.708	2.235	-24.312	O.2	1	LIG1	0.000	
2	 O23	-8.637	0.519	-21.404	O.2	1	LIG1	0.000	
3	 N25	-7.108	2.567	-22.726	N.2	1	LIG1	0.000	
4	 N26	-6.198	-0.567	-17.922	N.2	1	LIG1	0.000	
5	 O27	-6.207	4.449	-23.150	O.2	1	LIG1	0.000	
6	 C28	-10.189	1.119	-24.137	C.2	1	LIG1	0.000	
7	 C29	-8.239	-0.535	-21.870	C.2	1	LIG1	0.000	
8	 C30	-6.365	3.529	-22.243	C.2	1	LIG1	0.000	
9	 C31	-6.886	-1.011	-18.955	C.2	1	LIG1	0.000	
10	 C32	-7.460	2.838	-23.963	C.2	1	LIG1	0.000	
11	 C33	-6.825	4.034	-24.276	C.2	1	LIG1	0.000	
12	 C34	-13.060	-0.894	-22.908	C.2	1	LIG1	0.000	
13	 C35	-12.343	0.131	-23.444	C.2	1	LIG1	0.000	
14	 C36	-11.025	-2.143	-22.476	C.2	1	LIG1	0.000	
15	 C37	-2.849	1.187	-20.904	C.2	1	LIG1	0.000	
16	 C38	-3.531	0.707	-21.995	C.2	1	LIG1	0.000	
17	 C39	-12.421	-2.033	-22.424	C.2	1	LIG1	0.000	
18	 C40	-10.956	0.030	-23.532	C.2	1	LIG1	0.000	
19	 C41	-10.286	-1.138	-23.099	C.2	1	LIG1	0.000	
20	 C42	-5.037	0.075	-18.110	C.2	1	LIG1	0.000	
21	 C43	-3.342	0.985	-19.619	C.2	1	LIG1	0.000	
22	 C44	-4.694	0.038	-21.814	C.2	1	LIG1	0.000	
23	 C45	-6.448	-0.843	-20.268	C.2	1	LIG1	0.000	
24	 C46	-4.527	0.311	-19.409	C.2	1	LIG1	0.000	
25	 C47	-5.226	-0.160	-20.528	C.2	1	LIG1	0.000	
26	 N48	-7.225	-1.259	-21.333	N.pl3	1	LIG1	0.000	
27	 N49	-8.840	0.922	-24.418	N.pl3	1	LIG1	0.000	
28	 C50	-8.068	1.971	-25.034	C.3	1	LIG1	0.000	
29	 C51	-8.169	-3.399	-24.195	C.3	1	LIG1	0.000	
30	 C52	-7.083	-2.516	-22.008	C.3	1	LIG1	0.000	
31	 C53	-8.242	-0.411	-24.347	C.3	1	LIG1	0.000	
32	 C54	-8.200	-2.564	-23.005	C.3	1	LIG1	0.000	
33	 C55	-8.784	-1.184	-23.126	C.3	1	LIG1	0.000	
34	 F24	-13.154	-3.013	-21.906	 F	1	LIG1	0.000	
@<TRIPOS>BOND
1 4 20 ar
2 5 8 ar
3 1 6 2
4 6 18 1
5 2 7 2
6 7 33 1
7 3 8 ar
8 4 9 ar
9 3 10 ar
10 10 11 ar
11 5 11 ar
12 12 17 ar
13 12 13 ar
14 14 19 ar
15 15 16 ar
16 16 22 ar
17 14 17 ar
18 17 34 1
19 13 18 ar
20 18 19 ar
21 20 24 ar
22 15 21 ar
23 22 25 ar
24 9 23 ar
25 23 25 ar
26 21 24 ar
27 24 25 ar
28 7 26 1
29 23 26 1
30 6 27 1
31 27 28 1
32 10 28 1
33 29 32 1
34 26 30 1
35 27 31 1
36 30 32 1
37 32 33 1
38 19 33 1
39 31 33 1
@<TRIPOS>SUBSTRUCTURE
1	LIG1	1	GROUP	1 C	LIG
