# created with PyMOL 3.1.3.1
@<TRIPOS>MOLECULE
predicted
38 43 1                 
SMALL
USER_CHARGES
@<TRIPOS>ATOM
1	CL35	13.513	-1.924	22.073	Cl	1	LIG1	0.000	
2	 O32	10.341	3.645	23.831	O.2	1	LIG1	0.000	
3	 O33	8.556	1.595	21.004	O.2	1	LIG1	0.000	
4	 N36	6.145	0.076	17.591	N.2	1	LIG1	0.000	
5	 O37	7.863	-3.419	23.947	O.3	1	LIG1	0.000	
6	 C38	9.911	2.488	23.736	C.2	1	LIG1	0.000	
7	 C39	8.202	0.563	21.527	C.2	1	LIG1	0.000	
8	 C40	6.854	-0.261	18.660	C.2	1	LIG1	0.000	
9	 C41	12.966	0.522	22.932	C.2	1	LIG1	0.000	
10	 C42	12.153	1.558	23.293	C.2	1	LIG1	0.000	
11	 C43	11.035	-0.856	22.473	C.2	1	LIG1	0.000	
12	 C44	2.802	2.074	20.399	C.2	1	LIG1	0.000	
13	 C45	3.517	1.747	21.533	C.2	1	LIG1	0.000	
14	 C46	12.423	-0.681	22.512	C.2	1	LIG1	0.000	
15	 C47	10.788	1.393	23.300	C.2	1	LIG1	0.000	
16	 C48	10.215	0.157	22.920	C.2	1	LIG1	0.000	
17	 C49	4.979	0.703	17.740	C.2	1	LIG1	0.000	
18	 C50	3.295	1.729	19.147	C.2	1	LIG1	0.000	
19	 C51	4.696	1.075	21.418	C.2	1	LIG1	0.000	
20	 C52	6.443	0.045	19.954	C.2	1	LIG1	0.000	
21	 C53	4.485	1.057	19.005	C.2	1	LIG1	0.000	
22	 C54	5.213	0.724	20.154	C.2	1	LIG1	0.000	
23	 N55	7.233	-0.259	21.034	N.pl3	1	LIG1	0.000	
24	 N56	8.557	2.243	23.945	N.pl3	1	LIG1	0.000	
25	 C57	7.870	-4.146	25.123	C.3	1	LIG1	0.000	
26	 C58	7.678	3.295	24.318	C.3	1	LIG1	0.000	
27	 C59	8.316	-6.239	23.685	C.3	1	LIG1	0.000	
28	 C60	7.165	-6.498	24.462	C.3	1	LIG1	0.000	
29	 C61	8.171	-5.592	24.916	C.3	1	LIG1	0.000	
30	 C62	8.129	-2.085	24.080	C.3	1	LIG1	0.000	
31	 C63	7.131	-1.450	21.807	C.3	1	LIG1	0.000	
32	 C64	8.054	0.896	23.966	C.3	1	LIG1	0.000	
33	 C65	5.820	5.486	21.898	C.3	1	LIG1	0.000	
34	 C66	7.186	3.887	22.983	C.3	1	LIG1	0.000	
35	 C67	8.216	-1.382	22.822	C.3	1	LIG1	0.000	
36	 C68	8.715	0.035	22.850	C.3	1	LIG1	0.000	
37	 N69	6.300	4.928	23.104	N.3	1	LIG1	0.000	
38	 F34	9.024	-5.972	25.837	 F	1	LIG1	0.000	
@<TRIPOS>BOND
1 4 17 ar
2 5 25 1
3 2 6 2
4 3 7 2
5 7 23 1
6 4 8 ar
7 9 10 ar
8 10 15 ar
9 11 14 ar
10 12 13 ar
11 13 19 ar
12 1 14 1
13 9 14 ar
14 6 15 1
15 11 16 ar
16 15 16 ar
17 17 21 ar
18 12 18 ar
19 19 22 ar
20 8 20 ar
21 20 22 ar
22 18 21 ar
23 21 22 ar
24 20 23 1
25 23 31 1
26 6 24 1
27 24 32 1
28 25 29 1
29 24 26 1
30 27 28 1
31 27 29 1
32 28 29 1
33 29 38 1
34 5 30 1
35 31 35 1
36 32 36 1
37 33 37 1
38 26 34 1
39 30 35 1
40 7 36 1
41 16 36 1
42 35 36 1
43 34 37 1
@<TRIPOS>SUBSTRUCTURE
1	LIG1	1	GROUP	1 C	LIG
