# created with PyMOL 3.1.3.1
@<TRIPOS>MOLECULE
predicted
35 39 1                 
SMALL
USER_CHARGES
@<TRIPOS>ATOM
1	CL29	-13.229	-3.252	-22.097	Cl	1	LIG1	0.000	
2	 O26	-10.656	2.302	-24.680	O.2	1	LIG1	0.000	
3	 O27	-5.791	2.024	-24.664	O.2	1	LIG1	0.000	
4	 O28	-8.528	0.611	-21.714	O.2	1	LIG1	0.000	
5	 N30	-6.129	-0.628	-18.160	N.2	1	LIG1	0.000	
6	 O31	-7.621	-4.226	-24.916	O.3	1	LIG1	0.000	
7	 C32	-10.120	1.179	-24.511	C.2	1	LIG1	0.000	
8	 C33	-6.870	2.463	-24.470	C.2	1	LIG1	0.000	
9	 C34	-8.137	-0.452	-22.180	C.2	1	LIG1	0.000	
10	 C35	-6.812	-1.041	-19.217	C.2	1	LIG1	0.000	
11	 C36	-12.983	-0.889	-23.281	C.2	1	LIG1	0.000	
12	 C37	-12.274	0.138	-23.838	C.2	1	LIG1	0.000	
13	 C38	-10.912	-2.086	-22.794	C.2	1	LIG1	0.000	
14	 C39	-2.708	1.209	-21.058	C.2	1	LIG1	0.000	
15	 C40	-3.386	0.774	-22.186	C.2	1	LIG1	0.000	
16	 C41	-12.303	-2.002	-22.737	C.2	1	LIG1	0.000	
17	 C42	-10.880	0.071	-23.901	C.2	1	LIG1	0.000	
18	 C43	-10.187	-1.078	-23.443	C.2	1	LIG1	0.000	
19	 C44	-4.957	0.015	-18.328	C.2	1	LIG1	0.000	
20	 C45	-3.224	0.959	-19.782	C.2	1	LIG1	0.000	
21	 C46	-4.570	0.104	-22.050	C.2	1	LIG1	0.000	
22	 C47	-6.363	-0.828	-20.552	C.2	1	LIG1	0.000	
23	 C48	-4.420	0.286	-19.616	C.2	1	LIG1	0.000	
24	 C49	-5.119	-0.143	-20.768	C.2	1	LIG1	0.000	
25	 N50	-7.144	3.231	-23.395	N.pl3	1	LIG1	0.000	
26	 N51	-7.136	-1.213	-21.630	N.pl3	1	LIG1	0.000	
27	 N52	-8.772	1.009	-24.788	N.pl3	1	LIG1	0.000	
28	 C53	-8.078	-4.960	-26.081	C.3	1	LIG1	0.000	
29	 C54	-6.119	3.624	-22.467	C.3	1	LIG1	0.000	
30	 C55	-8.026	2.099	-25.373	C.3	1	LIG1	0.000	
31	 C56	-8.397	-3.232	-24.586	C.3	1	LIG1	0.000	
32	 C57	-7.011	-2.461	-22.348	C.3	1	LIG1	0.000	
33	 C58	-8.151	-0.315	-24.712	C.3	1	LIG1	0.000	
34	 C59	-8.077	-2.480	-23.374	C.3	1	LIG1	0.000	
35	 C60	-8.681	-1.096	-23.452	C.3	1	LIG1	0.000	
@<TRIPOS>BOND
1 5 19 ar
2 6 28 1
3 2 7 2
4 3 8 2
5 8 30 1
6 4 9 2
7 9 26 1
8 5 10 ar
9 11 12 ar
10 12 17 ar
11 13 16 ar
12 14 15 ar
13 15 21 ar
14 1 16 1
15 11 16 ar
16 7 17 1
17 13 18 ar
18 17 18 ar
19 19 23 ar
20 14 20 ar
21 21 24 ar
22 10 22 ar
23 22 24 ar
24 20 23 ar
25 23 24 ar
26 8 25 1
27 22 26 1
28 26 32 1
29 7 27 1
30 27 33 1
31 25 29 1
32 27 30 1
33 6 31 1
34 32 34 1
35 33 35 1
36 31 34 1
37 9 35 1
38 18 35 1
39 34 35 1
@<TRIPOS>SUBSTRUCTURE
1	LIG1	1	GROUP	1 C	LIG
