# created with PyMOL 3.1.3.1
@<TRIPOS>MOLECULE
predicted
27 31 1                 
SMALL
USER_CHARGES
@<TRIPOS>ATOM
1	CL19	13.094	-0.597	21.981	Cl	1	LIG1	0.000	
2	 O17	5.577	-2.674	20.802	O.2	1	LIG1	0.000	
3	 O18	8.437	0.789	20.562	O.2	1	LIG1	0.000	
4	 N20	5.744	0.246	17.150	N.2	1	LIG1	0.000	
5	 C21	6.539	-2.014	21.071	C.2	1	LIG1	0.000	
6	 C22	7.977	-0.291	20.947	C.2	1	LIG1	0.000	
7	 C23	6.449	-0.315	18.113	C.2	1	LIG1	0.000	
8	 C24	13.406	-2.588	25.286	C.2	1	LIG1	0.000	
9	 C25	12.107	-2.823	25.608	C.2	1	LIG1	0.000	
10	 C26	13.702	-1.895	24.157	C.2	1	LIG1	0.000	
11	 C27	11.124	-2.359	24.836	C.2	1	LIG1	0.000	
12	 C28	2.598	1.876	20.362	C.2	1	LIG1	0.000	
13	 C29	3.309	1.310	21.388	C.2	1	LIG1	0.000	
14	 C30	12.709	-1.408	23.363	C.2	1	LIG1	0.000	
15	 C31	11.408	-1.615	23.696	C.2	1	LIG1	0.000	
16	 C32	4.612	0.890	17.449	C.2	1	LIG1	0.000	
17	 C33	3.013	1.746	19.080	C.2	1	LIG1	0.000	
18	 C34	4.449	0.613	21.125	C.2	1	LIG1	0.000	
19	 C35	6.044	-0.262	19.422	C.2	1	LIG1	0.000	
20	 C36	4.167	1.050	18.776	C.2	1	LIG1	0.000	
21	 C37	4.896	0.470	19.802	C.2	1	LIG1	0.000	
22	 N38	6.815	-0.839	20.457	N.pl3	1	LIG1	0.000	
23	 N39	7.453	-2.267	21.960	N.pl3	1	LIG1	0.000	
24	 C40	8.897	-0.717	23.250	C.3	1	LIG1	0.000	
25	 C41	9.821	-1.812	21.758	C.3	1	LIG1	0.000	
26	 C42	10.391	-1.013	22.893	C.3	1	LIG1	0.000	
27	 C43	8.443	-1.239	21.947	C.3	1	LIG1	0.000	
@<TRIPOS>BOND
1 2 5 2
2 4 16 ar
3 5 22 1
4 5 23 1
5 3 6 2
6 6 22 1
7 4 7 ar
8 8 10 ar
9 8 9 ar
10 10 14 ar
11 9 11 ar
12 12 13 ar
13 13 18 ar
14 1 14 1
15 11 15 ar
16 14 15 ar
17 16 20 ar
18 12 17 ar
19 18 21 ar
20 7 19 ar
21 19 21 ar
22 17 20 ar
23 20 21 ar
24 19 22 1
25 23 27 1
26 24 26 1
27 15 26 1
28 25 26 1
29 6 27 1
30 24 27 1
31 25 27 1
@<TRIPOS>SUBSTRUCTURE
1	LIG1	1	GROUP	1 C	LIG
