# created with PyMOL 3.1.3.1
@<TRIPOS>MOLECULE
predicted
36 41 1                 
SMALL
USER_CHARGES
@<TRIPOS>ATOM
1	 O27	-10.420	2.284	-24.444	O.2	1	LIG1	0.000	
2	 O28	-8.440	0.516	-21.433	O.2	1	LIG1	0.000	
3	 N30	-6.021	-0.597	-17.936	N.2	1	LIG1	0.000	
4	 N31	-5.103	3.636	-23.292	N.2	1	LIG1	0.000	
5	 C32	-9.919	1.153	-24.246	C.2	1	LIG1	0.000	
6	 C33	-8.019	-0.524	-21.910	C.2	1	LIG1	0.000	
7	 C34	-5.985	3.559	-22.359	C.2	1	LIG1	0.000	
8	 C35	-6.695	-1.026	-18.984	C.2	1	LIG1	0.000	
9	 C36	-12.826	-0.831	-22.977	C.2	1	LIG1	0.000	
10	 C37	-12.094	0.186	-23.532	C.2	1	LIG1	0.000	
11	 C38	-10.812	-2.099	-22.526	C.2	1	LIG1	0.000	
12	 C39	-2.613	1.180	-20.852	C.2	1	LIG1	0.000	
13	 C40	-3.280	0.712	-21.962	C.2	1	LIG1	0.000	
14	 C41	-7.154	2.963	-22.887	C.2	1	LIG1	0.000	
15	 C42	-12.196	-1.976	-22.465	C.2	1	LIG1	0.000	
16	 C43	-10.707	0.073	-23.615	C.2	1	LIG1	0.000	
17	 C44	-10.061	-1.108	-23.165	C.2	1	LIG1	0.000	
18	 C45	-4.857	0.048	-18.103	C.2	1	LIG1	0.000	
19	 C46	-3.133	0.963	-19.574	C.2	1	LIG1	0.000	
20	 C47	-4.454	0.050	-21.817	C.2	1	LIG1	0.000	
21	 C48	-6.236	-0.847	-20.302	C.2	1	LIG1	0.000	
22	 C49	-6.871	2.661	-24.201	C.2	1	LIG1	0.000	
23	 C50	-4.324	0.287	-19.393	C.2	1	LIG1	0.000	
24	 C51	-4.998	-0.166	-20.527	C.2	1	LIG1	0.000	
25	 N52	-7.002	-1.258	-21.386	N.pl3	1	LIG1	0.000	
26	 N53	-8.584	0.933	-24.542	N.pl3	1	LIG1	0.000	
27	 N54	-5.654	3.123	-24.428	N.2	1	LIG1	0.000	
28	 C55	-7.811	1.977	-25.185	C.3	1	LIG1	0.000	
29	 C56	-3.979	1.964	-25.682	C.3	1	LIG1	0.000	
30	 C57	-4.879	3.112	-25.664	C.3	1	LIG1	0.000	
31	 C58	-7.927	-3.382	-24.264	C.3	1	LIG1	0.000	
32	 C59	-6.846	-2.486	-22.065	C.3	1	LIG1	0.000	
33	 C60	-8.001	-0.382	-24.405	C.3	1	LIG1	0.000	
34	 C61	-7.976	-2.548	-23.050	C.3	1	LIG1	0.000	
35	 C62	-8.552	-1.164	-23.172	C.3	1	LIG1	0.000	
36	 F29	-12.936	-2.935	-21.937	 F	1	LIG1	0.000	
@<TRIPOS>BOND
1 3 18 ar
2 4 7 ar
3 1 5 2
4 2 6 2
5 6 25 1
6 7 14 ar
7 3 8 ar
8 9 10 ar
9 10 16 ar
10 11 15 ar
11 12 13 ar
12 13 20 ar
13 14 22 ar
14 9 15 ar
15 15 36 1
16 5 16 1
17 11 17 ar
18 16 17 ar
19 18 23 ar
20 12 19 ar
21 20 24 ar
22 8 21 ar
23 21 24 ar
24 22 28 1
25 19 23 ar
26 23 24 ar
27 21 25 1
28 25 32 1
29 5 26 1
30 26 33 1
31 4 27 ar
32 22 27 ar
33 26 28 1
34 29 30 1
35 27 30 1
36 32 34 1
37 33 35 1
38 31 34 1
39 6 35 1
40 17 35 1
41 34 35 1
@<TRIPOS>SUBSTRUCTURE
1	LIG1	1	GROUP	1 C	LIG
