# created with PyMOL 3.1.3.1
@<TRIPOS>MOLECULE
predicted
23 26 1                 
SMALL
USER_CHARGES
@<TRIPOS>ATOM
1	 O18	6.410	-3.562	21.576	O.2	1	LIG1	0.000	
2	 O19	9.037	0.118	21.318	O.2	1	LIG1	0.000	
3	 N20	6.434	-0.539	17.820	N.2	1	LIG1	0.000	
4	 O21	9.838	-1.408	25.144	O.3	1	LIG1	0.000	
5	 C22	7.295	-2.804	21.845	C.2	1	LIG1	0.000	
6	 C23	8.629	-0.964	21.731	C.2	1	LIG1	0.000	
7	 C24	7.146	-1.085	18.806	C.2	1	LIG1	0.000	
8	 C25	3.192	1.008	20.970	C.2	1	LIG1	0.000	
9	 C26	3.892	0.434	22.008	C.2	1	LIG1	0.000	
10	 C27	5.290	0.078	18.075	C.2	1	LIG1	0.000	
11	 C28	3.640	0.916	19.682	C.2	1	LIG1	0.000	
12	 C29	5.035	-0.248	21.769	C.2	1	LIG1	0.000	
13	 C30	6.701	-1.100	20.113	C.2	1	LIG1	0.000	
14	 C31	4.797	0.218	19.391	C.2	1	LIG1	0.000	
15	 C32	5.514	-0.370	20.441	C.2	1	LIG1	0.000	
16	 N33	7.509	-1.620	21.196	N.pl3	1	LIG1	0.000	
17	 N34	8.217	-2.932	22.801	N.pl3	1	LIG1	0.000	
18	 C35	8.994	-0.993	24.130	C.3	1	LIG1	0.000	
19	 C36	12.939	-2.402	23.214	C.3	1	LIG1	0.000	
20	 C37	11.254	-1.469	24.813	C.3	1	LIG1	0.000	
21	 C38	10.588	-2.140	22.522	C.3	1	LIG1	0.000	
22	 C39	9.156	-1.800	22.824	C.3	1	LIG1	0.000	
23	 C40	11.504	-2.363	23.654	C.3	1	LIG1	0.000	
@<TRIPOS>BOND
1 3 10 ar
2 4 18 1
3 1 5 2
4 5 16 1
5 2 6 2
6 3 7 ar
7 8 9 ar
8 9 12 ar
9 10 14 ar
10 8 11 ar
11 12 15 ar
12 7 13 ar
13 13 15 ar
14 11 14 ar
15 14 15 ar
16 6 16 1
17 13 16 1
18 5 17 1
19 18 22 1
20 19 23 1
21 4 20 1
22 6 22 1
23 17 22 1
24 21 22 1
25 20 23 1
26 21 23 1
@<TRIPOS>SUBSTRUCTURE
1	LIG1	1	GROUP	1 C	LIG
