# created with PyMOL 3.1.3.1
@<TRIPOS>MOLECULE
predicted
25 27 1                 
SMALL
USER_CHARGES
@<TRIPOS>ATOM
1	 O22	8.201	1.235	20.715	O.2	1	LIG1	0.000	
2	 N26	5.925	0.138	17.273	N.2	1	LIG1	0.000	
3	 C27	8.110	0.124	21.191	C.2	1	LIG1	0.000	
4	 C28	6.625	-0.415	18.270	C.2	1	LIG1	0.000	
5	 C29	2.779	1.901	20.364	C.2	1	LIG1	0.000	
6	 C30	3.482	1.371	21.404	C.2	1	LIG1	0.000	
7	 C31	4.828	0.798	17.498	C.2	1	LIG1	0.000	
8	 C32	3.209	1.726	19.067	C.2	1	LIG1	0.000	
9	 C33	4.632	0.666	21.201	C.2	1	LIG1	0.000	
10	 C34	6.264	-0.267	19.582	C.2	1	LIG1	0.000	
11	 C35	4.366	1.008	18.811	C.2	1	LIG1	0.000	
12	 C36	5.091	0.463	19.896	C.2	1	LIG1	0.000	
13	 N37	8.847	-0.214	22.270	N.pl3	1	LIG1	0.000	
14	 C38	7.119	-0.855	20.631	C.3	1	LIG1	0.000	
15	 C39	7.846	-3.287	24.016	C.3	1	LIG1	0.000	
16	 C40	9.513	0.809	23.008	C.3	1	LIG1	0.000	
17	 C41	8.425	-1.925	23.970	C.3	1	LIG1	0.000	
18	 C42	12.811	-1.107	23.258	C.3	1	LIG1	0.000	
19	 C43	10.977	0.582	22.901	C.3	1	LIG1	0.000	
20	 C44	10.522	-1.868	22.633	C.3	1	LIG1	0.000	
21	 C45	9.049	-1.597	22.661	C.3	1	LIG1	0.000	
22	 C46	11.365	-0.841	23.287	C.3	1	LIG1	0.000	
23	 F23	13.394	-0.304	24.151	 F	1	LIG1	0.000	
24	 F24	13.316	-0.867	22.037	 F	1	LIG1	0.000	
25	 F25	13.095	-2.350	23.610	 F	1	LIG1	0.000	
@<TRIPOS>BOND
1 2 7 ar
2 1 3 2
3 3 14 1
4 2 4 ar
5 5 6 ar
6 6 9 ar
7 7 11 ar
8 5 8 ar
9 9 12 ar
10 4 10 ar
11 10 12 ar
12 8 11 ar
13 11 12 ar
14 3 13 1
15 10 14 1
16 15 17 1
17 13 16 1
18 17 21 1
19 18 23 1
20 18 24 1
21 18 25 1
22 16 19 1
23 20 22 1
24 13 21 1
25 20 21 1
26 18 22 1
27 19 22 1
@<TRIPOS>SUBSTRUCTURE
1	LIG1	1	GROUP	1 C	LIG
