# created with PyMOL 3.1.3.1
@<TRIPOS>MOLECULE
predicted
34 39 1                 
SMALL
USER_CHARGES
@<TRIPOS>ATOM
1	CL25	-13.812	-3.636	-22.858	Cl	1	LIG1	0.000	
2	 O21	-10.077	1.889	-24.170	O.2	1	LIG1	0.000	
3	 O22	-7.851	-0.452	-26.701	O.2	1	LIG1	0.000	
4	 O23	-8.911	-0.068	-21.383	O.2	1	LIG1	0.000	
5	 N26	-6.617	-1.067	-17.594	N.2	1	LIG1	0.000	
6	 C27	-9.980	0.702	-23.994	C.2	1	LIG1	0.000	
7	 C28	-7.288	0.306	-26.006	C.2	1	LIG1	0.000	
8	 C29	-8.520	-1.156	-21.705	C.2	1	LIG1	0.000	
9	 C30	-13.187	-1.071	-23.161	C.3	1	LIG1	0.000	
10	 C31	-12.300	0.018	-23.363	C.3	1	LIG1	0.000	
11	 C32	-12.686	-2.358	-23.049	C.3	1	LIG1	0.000	
12	 C33	-10.972	-0.238	-23.484	C.3	1	LIG1	0.000	
13	 C34	-7.857	-3.830	-23.969	C.3	1	LIG1	0.000	
14	 C35	-8.425	-3.212	-22.733	C.3	1	LIG1	0.000	
15	 C36	-7.263	-1.550	-18.649	C.2	1	LIG1	0.000	
16	 C37	-3.323	0.876	-20.505	C.2	1	LIG1	0.000	
17	 C38	-3.985	0.379	-21.621	C.2	1	LIG1	0.000	
18	 C39	-5.490	-0.384	-17.775	C.2	1	LIG1	0.000	
19	 C40	-3.813	0.629	-19.239	C.2	1	LIG1	0.000	
20	 C41	-5.131	-0.346	-21.478	C.2	1	LIG1	0.000	
21	 C42	-6.841	-1.346	-19.950	C.2	1	LIG1	0.000	
22	 C43	-4.968	-0.113	-19.054	C.2	1	LIG1	0.000	
23	 C44	-5.645	-0.601	-20.188	C.2	1	LIG1	0.000	
24	 N45	-6.259	0.983	-26.386	N.pl3	1	LIG1	0.000	
25	 N46	-7.551	-1.846	-21.052	N.pl3	1	LIG1	0.000	
26	 N47	-8.928	0.006	-24.269	N.pl3	1	LIG1	0.000	
27	 C48	-5.792	0.841	-27.718	C.3	1	LIG1	0.000	
28	 C49	-7.673	0.529	-24.580	C.3	1	LIG1	0.000	
29	 C50	-7.375	-3.087	-21.635	C.3	1	LIG1	0.000	
30	 C51	-11.311	-2.619	-23.181	C.3	1	LIG1	0.000	
31	 C52	-9.015	-1.877	-22.887	C.3	1	LIG1	0.000	
32	 C53	-9.240	-1.415	-24.082	C.3	1	LIG1	0.000	
33	 C54	-10.338	-1.576	-23.397	C.3	1	LIG1	0.000	
34	 F24	-7.747	-5.126	-23.958	 F	1	LIG1	0.000	
@<TRIPOS>BOND
1 5 18 ar
2 2 6 2
3 6 12 1
4 3 7 2
5 7 28 1
6 4 8 2
7 8 25 1
8 9 11 1
9 9 10 1
10 1 11 1
11 11 30 1
12 10 12 1
13 12 33 1
14 13 34 1
15 13 14 1
16 5 15 ar
17 16 17 ar
18 17 20 ar
19 18 22 ar
20 16 19 ar
21 20 23 ar
22 15 21 ar
23 21 23 ar
24 19 22 ar
25 22 23 ar
26 7 24 1
27 21 25 1
28 25 29 1
29 6 26 1
30 26 32 1
31 24 27 1
32 26 28 1
33 14 29 1
34 30 33 1
35 8 31 1
36 14 31 1
37 31 32 1
38 31 33 1
39 32 33 1
@<TRIPOS>SUBSTRUCTURE
1	LIG1	1	GROUP	1 C	LIG
