# created with PyMOL 3.1.3.1
@<TRIPOS>MOLECULE
predicted
40 45 1                 
SMALL
USER_CHARGES
@<TRIPOS>ATOM
1	CL30	13.272	-2.003	22.184	Cl	1	LIG1	0.000	
2	 O27	10.106	3.644	23.737	O.2	1	LIG1	0.000	
3	 O28	5.382	3.600	23.528	O.2	1	LIG1	0.000	
4	 O29	8.423	1.566	20.930	O.2	1	LIG1	0.000	
5	 N31	6.899	-5.939	26.484	N.3	1	LIG1	0.000	
6	 N32	5.802	-3.803	25.245	N.3	1	LIG1	0.000	
7	 N33	6.122	0.033	17.442	N.2	1	LIG1	0.000	
8	 C34	9.676	2.482	23.677	C.2	1	LIG1	0.000	
9	 C35	6.527	3.812	23.350	C.2	1	LIG1	0.000	
10	 C36	8.051	0.530	21.436	C.2	1	LIG1	0.000	
11	 C37	5.636	-5.611	26.704	C.3	1	LIG1	0.000	
12	 C38	5.105	-4.478	26.095	C.3	1	LIG1	0.000	
13	 C39	7.642	-5.243	25.582	C.3	1	LIG1	0.000	
14	 C40	6.807	-0.309	18.531	C.2	1	LIG1	0.000	
15	 C41	7.102	-4.133	24.991	C.3	1	LIG1	0.000	
16	 C42	12.734	0.466	22.977	C.2	1	LIG1	0.000	
17	 C43	11.919	1.516	23.305	C.2	1	LIG1	0.000	
18	 C44	10.810	-0.909	22.491	C.2	1	LIG1	0.000	
19	 C45	2.693	2.026	20.180	C.2	1	LIG1	0.000	
20	 C46	3.378	1.677	21.337	C.2	1	LIG1	0.000	
21	 C47	12.195	-0.742	22.571	C.2	1	LIG1	0.000	
22	 C48	10.550	1.368	23.282	C.2	1	LIG1	0.000	
23	 C49	9.991	0.132	22.905	C.2	1	LIG1	0.000	
24	 C50	4.953	0.647	17.562	C.2	1	LIG1	0.000	
25	 C51	3.212	1.680	18.923	C.2	1	LIG1	0.000	
26	 C52	4.562	1.004	21.248	C.2	1	LIG1	0.000	
27	 C53	6.347	-0.007	19.820	C.2	1	LIG1	0.000	
28	 C54	4.413	1.005	18.813	C.2	1	LIG1	0.000	
29	 C55	5.104	0.674	19.986	C.2	1	LIG1	0.000	
30	 N56	6.935	4.442	22.248	N.pl3	1	LIG1	0.000	
31	 N57	7.866	-3.415	24.155	N.3	1	LIG1	0.000	
32	 N58	7.098	-0.307	20.925	N.pl3	1	LIG1	0.000	
33	 N59	8.331	2.243	23.892	N.pl3	1	LIG1	0.000	
34	 C60	6.021	4.994	21.308	C.3	1	LIG1	0.000	
35	 C61	7.519	3.335	24.336	C.3	1	LIG1	0.000	
36	 C62	7.733	-1.981	24.064	C.3	1	LIG1	0.000	
37	 C63	6.971	-1.505	21.679	C.3	1	LIG1	0.000	
38	 C64	7.802	0.876	23.902	C.3	1	LIG1	0.000	
39	 C65	8.010	-1.415	22.767	C.3	1	LIG1	0.000	
40	 C66	8.493	-0.001	22.785	C.3	1	LIG1	0.000	
@<TRIPOS>BOND
1 5 11 1
2 7 24 ar
3 2 8 2
4 3 9 2
5 9 35 1
6 4 10 2
7 10 32 1
8 11 12 1
9 6 12 1
10 5 13 1
11 7 14 ar
12 6 15 1
13 13 15 1
14 16 17 ar
15 17 22 ar
16 18 21 ar
17 19 20 ar
18 20 26 ar
19 1 21 1
20 16 21 ar
21 8 22 1
22 18 23 ar
23 22 23 ar
24 24 28 ar
25 19 25 ar
26 26 29 ar
27 14 27 ar
28 27 29 ar
29 25 28 ar
30 28 29 ar
31 9 30 1
32 15 31 1
33 27 32 1
34 32 37 1
35 8 33 1
36 33 38 1
37 30 34 1
38 33 35 1
39 31 36 1
40 37 39 1
41 38 40 1
42 36 39 1
43 10 40 1
44 23 40 1
45 39 40 1
@<TRIPOS>SUBSTRUCTURE
1	LIG1	1	GROUP	1 C	LIG
