# created with PyMOL 3.1.3.1
@<TRIPOS>MOLECULE
predicted
33 37 1                 
SMALL
USER_CHARGES
@<TRIPOS>ATOM
1	 O24	10.397	3.449	23.490	O.2	1	LIG1	0.000	
2	 O25	7.006	5.087	23.936	O.2	1	LIG1	0.000	
3	 O26	8.632	1.414	20.747	O.2	1	LIG1	0.000	
4	 N28	6.084	0.060	17.389	N.2	1	LIG1	0.000	
5	 C29	9.985	2.281	23.422	C.2	1	LIG1	0.000	
6	 C30	7.380	4.168	23.335	C.2	1	LIG1	0.000	
7	 C31	8.267	0.374	21.264	C.2	1	LIG1	0.000	
8	 C32	6.827	-0.304	18.418	C.2	1	LIG1	0.000	
9	 C33	13.073	0.317	22.688	C.2	1	LIG1	0.000	
10	 C34	12.247	1.366	23.022	C.2	1	LIG1	0.000	
11	 C35	11.167	-1.076	22.195	C.2	1	LIG1	0.000	
12	 C36	2.778	1.878	20.395	C.2	1	LIG1	0.000	
13	 C37	3.536	1.497	21.495	C.2	1	LIG1	0.000	
14	 C38	12.553	-0.891	22.275	C.2	1	LIG1	0.000	
15	 C39	10.877	1.196	23.012	C.2	1	LIG1	0.000	
16	 C40	10.315	-0.039	22.624	C.2	1	LIG1	0.000	
17	 C41	4.904	0.659	17.589	C.2	1	LIG1	0.000	
18	 C42	3.223	1.602	19.110	C.2	1	LIG1	0.000	
19	 C43	4.730	0.861	21.309	C.2	1	LIG1	0.000	
20	 C44	6.441	-0.062	19.741	C.2	1	LIG1	0.000	
21	 C45	4.429	0.960	18.891	C.2	1	LIG1	0.000	
22	 C46	5.200	0.589	20.003	C.2	1	LIG1	0.000	
23	 N47	7.506	4.313	22.020	N.pl3	1	LIG1	0.000	
24	 N48	7.257	-0.398	20.798	N.pl3	1	LIG1	0.000	
25	 N49	8.617	1.998	23.651	N.pl3	1	LIG1	0.000	
26	 C50	7.096	5.513	21.342	C.3	1	LIG1	0.000	
27	 C51	7.622	2.921	24.050	C.3	1	LIG1	0.000	
28	 C52	8.192	-2.327	23.788	C.3	1	LIG1	0.000	
29	 C53	7.146	-1.613	21.557	C.3	1	LIG1	0.000	
30	 C54	8.161	0.623	23.726	C.3	1	LIG1	0.000	
31	 C55	8.304	-1.585	22.519	C.3	1	LIG1	0.000	
32	 C56	8.812	-0.180	22.564	C.3	1	LIG1	0.000	
33	 F27	13.403	-1.869	21.955	 F	1	LIG1	0.000	
@<TRIPOS>BOND
1 4 17 ar
2 1 5 2
3 2 6 2
4 6 27 1
5 3 7 2
6 7 24 1
7 4 8 ar
8 9 10 ar
9 10 15 ar
10 11 14 ar
11 12 13 ar
12 13 19 ar
13 9 14 ar
14 14 33 1
15 5 15 1
16 11 16 ar
17 15 16 ar
18 17 21 ar
19 12 18 ar
20 19 22 ar
21 8 20 ar
22 20 22 ar
23 18 21 ar
24 21 22 ar
25 6 23 1
26 20 24 1
27 24 29 1
28 5 25 1
29 25 30 1
30 23 26 1
31 25 27 1
32 29 31 1
33 30 32 1
34 28 31 1
35 7 32 1
36 16 32 1
37 31 32 1
@<TRIPOS>SUBSTRUCTURE
1	LIG1	1	GROUP	1 C	LIG
