# created with PyMOL 3.1.3.1
@<TRIPOS>MOLECULE
predicted
28 29 1                 
SMALL
USER_CHARGES
@<TRIPOS>ATOM
1	CL24	-13.485	-2.956	-22.384	Cl	1	LIG1	0.000	
2	 O19	-7.678	0.088	-21.847	O.2	1	LIG1	0.000	
3	 O20	-4.708	-1.782	-18.857	O.2	1	LIG1	0.000	
4	 O21	-5.538	-0.037	-17.332	O.2	1	LIG1	0.000	
5	 O22	-12.054	6.796	-23.554	O.2	1	LIG1	0.000	
6	 O23	-13.945	6.284	-24.871	O.3	1	LIG1	0.000	
7	 O25	-6.597	-0.238	-19.516	O.3	1	LIG1	0.000	
8	 C26	-7.670	-1.028	-21.418	C.2	1	LIG1	0.000	
9	 C27	-13.032	2.214	-23.762	C.2	1	LIG1	0.000	
10	 C28	-10.706	2.516	-24.266	C.2	1	LIG1	0.000	
11	 C29	-12.521	-0.551	-23.207	C.2	1	LIG1	0.000	
12	 C30	-10.982	-2.343	-22.946	C.2	1	LIG1	0.000	
13	 C31	-10.276	-0.200	-23.678	C.2	1	LIG1	0.000	
14	 C32	-13.249	3.564	-24.017	C.2	1	LIG1	0.000	
15	 C33	-10.957	3.862	-24.519	C.2	1	LIG1	0.000	
16	 C34	-12.245	-1.877	-22.872	C.2	1	LIG1	0.000	
17	 C35	-11.771	1.694	-23.899	C.2	1	LIG1	0.000	
18	 C36	-11.517	0.291	-23.590	C.2	1	LIG1	0.000	
19	 C37	-9.996	-1.504	-23.370	C.2	1	LIG1	0.000	
20	 C38	-12.226	4.388	-24.410	C.2	1	LIG1	0.000	
21	 N39	-8.068	-2.121	-22.096	N.pl3	1	LIG1	0.000	
22	 N40	-4.242	0.673	-19.412	N.3	1	LIG1	0.000	
23	 N41	-11.779	6.516	-26.022	N.3	1	LIG1	0.000	
24	 C42	-7.165	-1.397	-20.037	C.3	1	LIG1	0.000	
25	 C43	-8.438	-3.300	-24.241	C.3	1	LIG1	0.000	
26	 C44	-8.557	-1.978	-23.472	C.3	1	LIG1	0.000	
27	 S45	-5.240	-0.383	-18.710	S.3	1	LIG1	0.000	
28	 S46	-12.541	6.087	-24.711	S.O2	1	LIG1	0.000	
@<TRIPOS>BOND
1 7 27 1
2 2 8 2
3 8 24 1
4 9 14 ar
5 11 18 ar
6 12 16 ar
7 14 20 ar
8 10 15 ar
9 1 16 1
10 11 16 ar
11 9 17 ar
12 10 17 ar
13 13 18 ar
14 17 18 1
15 12 19 ar
16 13 19 ar
17 15 20 ar
18 20 28 1
19 8 21 1
20 7 24 1
21 25 26 1
22 19 26 1
23 21 26 1
24 3 27 2
25 4 27 2
26 22 27 1
27 5 28 2
28 6 28 1
29 23 28 1
@<TRIPOS>SUBSTRUCTURE
1	LIG1	1	GROUP	1 C	LIG
