# created with PyMOL 3.1.3.1
@<TRIPOS>MOLECULE
predicted
38 43 1                 
SMALL
USER_CHARGES
@<TRIPOS>ATOM
1	CL26	13.369	-1.888	22.079	Cl	1	LIG1	0.000	
2	 O23	10.229	3.777	23.479	O.2	1	LIG1	0.000	
3	 O24	5.531	3.679	23.282	O.2	1	LIG1	0.000	
4	 O25	8.529	1.675	20.766	O.2	1	LIG1	0.000	
5	 N27	6.567	-5.243	23.113	N.2	1	LIG1	0.000	
6	 N28	7.546	-4.300	23.011	N.2	1	LIG1	0.000	
7	 N29	5.978	-3.510	24.331	N.2	1	LIG1	0.000	
8	 N30	6.155	0.159	17.335	N.2	1	LIG1	0.000	
9	 N31	5.604	-4.755	23.912	N.2	1	LIG1	0.000	
10	 C32	9.800	2.625	23.456	C.2	1	LIG1	0.000	
11	 C33	6.677	3.946	23.144	C.2	1	LIG1	0.000	
12	 C34	8.141	0.657	21.303	C.2	1	LIG1	0.000	
13	 C35	7.156	-3.273	23.764	C.2	1	LIG1	0.000	
14	 C36	6.840	-0.169	18.416	C.2	1	LIG1	0.000	
15	 C37	12.838	0.593	22.798	C.2	1	LIG1	0.000	
16	 C38	12.033	1.648	23.082	C.2	1	LIG1	0.000	
17	 C39	10.922	-0.793	22.367	C.2	1	LIG1	0.000	
18	 C40	2.808	2.243	20.054	C.2	1	LIG1	0.000	
19	 C41	3.491	1.918	21.203	C.2	1	LIG1	0.000	
20	 C42	12.299	-0.627	22.425	C.2	1	LIG1	0.000	
21	 C43	10.662	1.503	23.072	C.2	1	LIG1	0.000	
22	 C44	10.092	0.251	22.740	C.2	1	LIG1	0.000	
23	 C45	5.003	0.801	17.449	C.2	1	LIG1	0.000	
24	 C46	3.307	1.871	18.820	C.2	1	LIG1	0.000	
25	 C47	4.665	1.225	21.122	C.2	1	LIG1	0.000	
26	 C48	6.413	0.175	19.698	C.2	1	LIG1	0.000	
27	 C49	4.485	1.187	18.700	C.2	1	LIG1	0.000	
28	 C50	5.189	0.864	19.872	C.2	1	LIG1	0.000	
29	 N51	7.108	4.612	22.061	N.pl3	1	LIG1	0.000	
30	 N52	7.171	-0.143	20.809	N.pl3	1	LIG1	0.000	
31	 N53	8.459	2.381	23.719	N.pl3	1	LIG1	0.000	
32	 C54	6.207	5.172	21.114	C.3	1	LIG1	0.000	
33	 C55	7.659	3.487	24.148	C.3	1	LIG1	0.000	
34	 C56	7.932	-1.938	23.895	C.3	1	LIG1	0.000	
35	 C57	7.028	-1.327	21.559	C.3	1	LIG1	0.000	
36	 C58	7.924	1.011	23.768	C.3	1	LIG1	0.000	
37	 C59	8.082	-1.264	22.645	C.3	1	LIG1	0.000	
38	 C60	8.601	0.145	22.647	C.3	1	LIG1	0.000	
@<TRIPOS>BOND
1 5 9 ar
2 5 6 ar
3 8 23 ar
4 7 9 ar
5 2 10 2
6 3 11 2
7 11 33 1
8 4 12 2
9 12 30 1
10 6 13 ar
11 7 13 ar
12 8 14 ar
13 15 16 ar
14 16 21 ar
15 17 20 ar
16 18 19 ar
17 19 25 ar
18 1 20 1
19 15 20 ar
20 10 21 1
21 17 22 ar
22 21 22 ar
23 23 27 ar
24 18 24 ar
25 25 28 ar
26 14 26 ar
27 26 28 ar
28 24 27 ar
29 27 28 ar
30 11 29 1
31 26 30 1
32 30 35 1
33 10 31 1
34 31 36 1
35 29 32 1
36 31 33 1
37 13 34 1
38 35 37 1
39 36 38 1
40 34 37 1
41 12 38 1
42 22 38 1
43 37 38 1
@<TRIPOS>SUBSTRUCTURE
1	LIG1	1	GROUP	1 C	LIG
