# created with PyMOL 3.1.3.1
@<TRIPOS>MOLECULE
predicted
36 41 1                 
SMALL
USER_CHARGES
@<TRIPOS>ATOM
1	CL28	-13.279	-3.062	-21.842	Cl	1	LIG1	0.000	
2	 O26	-10.562	2.456	-24.435	O.2	1	LIG1	0.000	
3	 O27	-8.555	0.679	-21.451	O.2	1	LIG1	0.000	
4	 N29	-6.197	-0.519	-17.957	N.2	1	LIG1	0.000	
5	 O30	-7.828	-4.334	-24.522	O.3	1	LIG1	0.000	
6	 C31	-10.052	1.330	-24.257	C.2	1	LIG1	0.000	
7	 C32	-8.161	-0.373	-21.921	C.2	1	LIG1	0.000	
8	 C33	-6.865	-0.945	-19.010	C.2	1	LIG1	0.000	
9	 C34	-12.963	-0.677	-23.041	C.2	1	LIG1	0.000	
10	 C35	-12.225	0.340	-23.580	C.2	1	LIG1	0.000	
11	 C36	-10.939	-1.930	-22.582	C.2	1	LIG1	0.000	
12	 C37	-2.813	1.420	-20.826	C.2	1	LIG1	0.000	
13	 C38	-3.463	0.954	-21.945	C.2	1	LIG1	0.000	
14	 C39	-12.324	-1.811	-22.537	C.2	1	LIG1	0.000	
15	 C40	-10.842	0.228	-23.653	C.2	1	LIG1	0.000	
16	 C41	-10.189	-0.949	-23.204	C.2	1	LIG1	0.000	
17	 C42	-5.041	0.163	-18.101	C.2	1	LIG1	0.000	
18	 C43	-3.327	1.162	-19.551	C.2	1	LIG1	0.000	
19	 C44	-4.626	0.255	-21.807	C.2	1	LIG1	0.000	
20	 C45	-6.390	-0.735	-20.316	C.2	1	LIG1	0.000	
21	 C46	-7.051	2.852	-24.091	C.2	1	LIG1	0.000	
22	 C47	-7.513	3.331	-22.894	C.2	1	LIG1	0.000	
23	 C48	-5.400	3.690	-23.010	C.2	1	LIG1	0.000	
24	 C49	-4.510	0.447	-19.384	C.2	1	LIG1	0.000	
25	 C50	-5.176	-0.004	-20.539	C.2	1	LIG1	0.000	
26	 N51	-7.144	-1.128	-21.398	N.pl3	1	LIG1	0.000	
27	 N52	-8.703	1.122	-24.544	N.pl3	1	LIG1	0.000	
28	 N53	-5.782	3.095	-24.195	N.pl3	1	LIG1	0.000	
29	 N54	-6.466	3.819	-22.217	N.2	1	LIG1	0.000	
30	 C55	-8.134	-4.920	-25.782	C.3	1	LIG1	0.000	
31	 C56	-7.923	2.174	-25.164	C.3	1	LIG1	0.000	
32	 C57	-8.228	-3.054	-24.454	C.3	1	LIG1	0.000	
33	 C58	-6.996	-2.360	-22.153	C.3	1	LIG1	0.000	
34	 C59	-8.099	-0.186	-24.421	C.3	1	LIG1	0.000	
35	 C60	-8.128	-2.393	-23.136	C.3	1	LIG1	0.000	
36	 C61	-8.674	-0.992	-23.206	C.3	1	LIG1	0.000	
@<TRIPOS>BOND
1 4 17 ar
2 5 32 1
3 2 6 2
4 6 15 1
5 3 7 2
6 7 36 1
7 4 8 ar
8 9 14 ar
9 9 10 ar
10 11 16 ar
11 12 13 ar
12 13 19 ar
13 1 14 1
14 11 14 ar
15 10 15 ar
16 15 16 ar
17 17 24 ar
18 12 18 ar
19 19 25 ar
20 8 20 ar
21 20 25 ar
22 21 22 ar
23 21 28 ar
24 22 29 ar
25 23 28 ar
26 18 24 ar
27 24 25 ar
28 7 26 1
29 20 26 1
30 6 27 1
31 27 31 1
32 23 29 ar
33 5 30 1
34 21 31 1
35 32 35 1
36 26 33 1
37 27 34 1
38 33 35 1
39 35 36 1
40 16 36 1
41 34 36 1
@<TRIPOS>SUBSTRUCTURE
1	LIG1	1	GROUP	1 C	LIG
