# created with PyMOL 3.1.3.1
@<TRIPOS>MOLECULE
predicted
25 29 1                 
SMALL
USER_CHARGES
@<TRIPOS>ATOM
1	 O16	-11.401	-3.887	-22.732	O.2	1	LIG1	0.000	
2	 O17	-8.022	0.464	-21.933	O.2	1	LIG1	0.000	
3	 O18	-6.342	-3.676	-21.414	O.2	1	LIG1	0.000	
4	 N19	-6.199	-0.695	-17.882	N.2	1	LIG1	0.000	
5	 C20	-11.222	-2.821	-23.065	C.2	1	LIG1	0.000	
6	 C21	-6.796	-1.180	-18.966	C.2	1	LIG1	0.000	
7	 C22	-2.711	1.124	-20.568	C.2	1	LIG1	0.000	
8	 C23	-3.275	0.616	-21.712	C.2	1	LIG1	0.000	
9	 C24	-5.058	-0.042	-17.988	C.2	1	LIG1	0.000	
10	 C25	-3.284	0.924	-19.366	C.2	1	LIG1	0.000	
11	 C26	-4.445	-0.100	-21.642	C.2	1	LIG1	0.000	
12	 C27	-6.260	-1.055	-20.238	C.2	1	LIG1	0.000	
13	 C28	-6.903	-2.729	-21.967	C.2	1	LIG1	0.000	
14	 C29	-7.535	-2.674	-23.279	C.3	1	LIG1	0.000	
15	 C30	-7.691	-0.672	-22.200	C.2	1	LIG1	0.000	
16	 C31	-4.450	0.203	-19.242	C.2	1	LIG1	0.000	
17	 C32	-5.050	-0.303	-20.393	C.2	1	LIG1	0.000	
18	 N33	-10.137	-2.442	-23.577	N.pl3	1	LIG1	0.000	
19	 N34	-6.922	-1.495	-21.407	N.pl3	1	LIG1	0.000	
20	 N35	-8.009	-1.299	-23.295	N.pl3	1	LIG1	0.000	
21	 C36	-12.403	-1.797	-22.981	C.3	1	LIG1	0.000	
22	 C37	-10.213	-1.050	-23.883	C.3	1	LIG1	0.000	
23	 C38	-8.776	-2.440	-25.176	C.3	1	LIG1	0.000	
24	 C39	-8.961	-1.035	-24.344	C.3	1	LIG1	0.000	
25	 C40	-8.801	-3.177	-23.961	C.3	1	LIG1	0.000	
@<TRIPOS>BOND
1 4 9 ar
2 1 5 2
3 5 18 1
4 4 6 ar
5 7 8 ar
6 8 11 ar
7 9 16 ar
8 7 10 ar
9 11 17 ar
10 6 12 ar
11 12 17 ar
12 3 13 2
13 13 19 1
14 13 14 1
15 14 20 1
16 2 15 2
17 15 20 1
18 10 16 ar
19 16 17 ar
20 18 22 1
21 18 25 1
22 12 19 1
23 15 19 1
24 5 21 1
25 22 24 1
26 23 25 1
27 20 24 1
28 23 24 1
29 14 25 1
@<TRIPOS>SUBSTRUCTURE
1	LIG1	1	GROUP	1 C	LIG
