# created with PyMOL 3.1.3.1
@<TRIPOS>MOLECULE
predicted
36 41 1                 
SMALL
USER_CHARGES
@<TRIPOS>ATOM
1	 O23	-10.582	2.343	-24.514	O.2	1	LIG1	0.000	
2	 O24	-8.578	0.600	-21.540	O.2	1	LIG1	0.000	
3	 O25	-3.893	4.208	-23.555	O.2	1	LIG1	0.000	
4	 N27	-6.118	-0.541	-18.045	N.2	1	LIG1	0.000	
5	 N28	-7.623	3.018	-22.924	N.2	1	LIG1	0.000	
6	 C29	-10.084	1.219	-24.319	C.2	1	LIG1	0.000	
7	 C30	-8.157	-0.443	-22.002	C.2	1	LIG1	0.000	
8	 C31	-6.797	-0.970	-19.091	C.2	1	LIG1	0.000	
9	 C32	-7.102	2.793	-24.160	C.2	1	LIG1	0.000	
10	 C33	-12.972	-0.811	-23.089	C.2	1	LIG1	0.000	
11	 C34	-12.248	0.218	-23.621	C.2	1	LIG1	0.000	
12	 C35	-10.943	-2.062	-22.632	C.2	1	LIG1	0.000	
13	 C36	-2.779	1.377	-20.959	C.2	1	LIG1	0.000	
14	 C37	-3.450	0.916	-22.069	C.2	1	LIG1	0.000	
15	 C38	-12.339	-1.953	-22.590	C.2	1	LIG1	0.000	
16	 C39	-10.861	0.118	-23.701	C.2	1	LIG1	0.000	
17	 C40	-10.204	-1.055	-23.260	C.2	1	LIG1	0.000	
18	 C41	-5.804	3.178	-24.444	C.2	1	LIG1	0.000	
19	 C42	-4.961	0.129	-18.211	C.2	1	LIG1	0.000	
20	 C43	-3.270	1.112	-19.685	C.2	1	LIG1	0.000	
21	 C44	-4.617	0.225	-21.912	C.2	1	LIG1	0.000	
22	 C45	-6.365	-0.735	-20.401	C.2	1	LIG1	0.000	
23	 C46	-6.889	3.627	-22.019	C.2	1	LIG1	0.000	
24	 C47	-5.064	3.843	-23.392	C.2	1	LIG1	0.000	
25	 C48	-4.457	0.412	-19.497	C.2	1	LIG1	0.000	
26	 C49	-5.150	-0.031	-20.634	C.2	1	LIG1	0.000	
27	 N50	-7.135	-1.148	-21.483	N.pl3	1	LIG1	0.000	
28	 N51	-8.728	1.021	-24.596	N.pl3	1	LIG1	0.000	
29	 N52	-5.621	4.068	-22.221	N.2	1	LIG1	0.000	
30	 C53	-7.965	2.063	-25.253	C.3	1	LIG1	0.000	
31	 C54	-8.067	-3.284	-24.374	C.3	1	LIG1	0.000	
32	 C55	-6.958	-2.402	-22.161	C.3	1	LIG1	0.000	
33	 C56	-8.135	-0.313	-24.504	C.3	1	LIG1	0.000	
34	 C57	-8.106	-2.476	-23.150	C.3	1	LIG1	0.000	
35	 C58	-8.701	-1.092	-23.269	C.3	1	LIG1	0.000	
36	 F26	-13.061	-2.927	-22.084	 F	1	LIG1	0.000	
@<TRIPOS>BOND
1 4 19 ar
2 1 6 2
3 6 16 1
4 2 7 2
5 7 35 1
6 4 8 ar
7 5 9 ar
8 9 18 ar
9 10 15 ar
10 10 11 ar
11 12 17 ar
12 13 14 ar
13 14 21 ar
14 12 15 ar
15 15 36 1
16 11 16 ar
17 16 17 ar
18 18 24 ar
19 19 25 ar
20 13 20 ar
21 21 26 ar
22 8 22 ar
23 22 26 ar
24 5 23 ar
25 3 24 2
26 24 29 ar
27 20 25 ar
28 25 26 ar
29 7 27 1
30 22 27 1
31 6 28 1
32 28 30 1
33 23 29 ar
34 9 30 1
35 31 34 1
36 27 32 1
37 28 33 1
38 32 34 1
39 34 35 1
40 17 35 1
41 33 35 1
@<TRIPOS>SUBSTRUCTURE
1	LIG1	1	GROUP	1 C	LIG
