# created with PyMOL 3.1.3.1
@<TRIPOS>MOLECULE
predicted
35 40 1                 
SMALL
USER_CHARGES
@<TRIPOS>ATOM
1	 O23	-10.976	2.273	-24.521	O.2	1	LIG1	0.000	
2	 O24	-8.819	0.646	-21.495	O.2	1	LIG1	0.000	
3	 N26	-5.536	3.266	-23.306	N.2	1	LIG1	0.000	
4	 N27	-6.311	-0.469	-17.978	N.2	1	LIG1	0.000	
5	 N28	-6.065	2.534	-24.318	N.2	1	LIG1	0.000	
6	 N29	-6.452	3.922	-22.714	N.2	1	LIG1	0.000	
7	 C30	-10.425	1.172	-24.296	C.2	1	LIG1	0.000	
8	 C31	-8.405	-0.407	-21.940	C.2	1	LIG1	0.000	
9	 C32	-7.008	-0.907	-19.009	C.2	1	LIG1	0.000	
10	 C33	-13.226	-0.913	-23.031	C.2	1	LIG1	0.000	
11	 C34	-12.533	0.121	-23.589	C.2	1	LIG1	0.000	
12	 C35	-11.158	-2.085	-22.542	C.2	1	LIG1	0.000	
13	 C36	-2.947	1.277	-20.948	C.2	1	LIG1	0.000	
14	 C37	-3.639	0.811	-22.047	C.2	1	LIG1	0.000	
15	 C38	-12.549	-2.019	-22.501	C.2	1	LIG1	0.000	
16	 C39	-11.144	0.060	-23.659	C.2	1	LIG1	0.000	
17	 C40	-10.446	-1.077	-23.189	C.2	1	LIG1	0.000	
18	 C41	-5.142	0.164	-18.164	C.2	1	LIG1	0.000	
19	 C42	-3.434	1.067	-19.665	C.2	1	LIG1	0.000	
20	 C43	-4.828	0.168	-21.870	C.2	1	LIG1	0.000	
21	 C44	-6.594	-0.707	-20.331	C.2	1	LIG1	0.000	
22	 C45	-7.366	2.756	-24.310	C.2	1	LIG1	0.000	
23	 C46	-4.635	0.404	-19.465	C.2	1	LIG1	0.000	
24	 C47	-5.356	-0.046	-20.582	C.2	1	LIG1	0.000	
25	 N48	-7.373	-1.119	-21.404	N.pl3	1	LIG1	0.000	
26	 N49	-9.071	1.022	-24.557	N.pl3	1	LIG1	0.000	
27	 N50	-7.599	3.639	-23.328	N.2	1	LIG1	0.000	
28	 C51	-8.358	2.088	-25.240	C.3	1	LIG1	0.000	
29	 C52	-8.871	4.206	-22.964	C.3	1	LIG1	0.000	
30	 C53	-8.298	-3.306	-24.246	C.3	1	LIG1	0.000	
31	 C54	-7.208	-2.375	-22.074	C.3	1	LIG1	0.000	
32	 C55	-8.404	-0.296	-24.424	C.3	1	LIG1	0.000	
33	 C56	-8.347	-2.451	-23.043	C.3	1	LIG1	0.000	
34	 C57	-8.951	-1.085	-23.186	C.3	1	LIG1	0.000	
35	 F25	-13.249	-2.996	-21.971	 F	1	LIG1	0.000	
@<TRIPOS>BOND
1 3 6 ar
2 4 18 ar
3 3 5 ar
4 6 27 ar
5 1 7 2
6 7 16 1
7 2 8 2
8 8 34 1
9 4 9 ar
10 10 15 ar
11 10 11 ar
12 12 17 ar
13 13 14 ar
14 14 20 ar
15 12 15 ar
16 15 35 1
17 11 16 ar
18 16 17 ar
19 18 23 ar
20 13 19 ar
21 20 24 ar
22 9 21 ar
23 21 24 ar
24 5 22 ar
25 22 27 ar
26 19 23 ar
27 23 24 ar
28 8 25 1
29 21 25 1
30 7 26 1
31 26 28 1
32 27 29 1
33 22 28 1
34 30 33 1
35 25 31 1
36 26 32 1
37 31 33 1
38 33 34 1
39 17 34 1
40 32 34 1
@<TRIPOS>SUBSTRUCTURE
1	LIG1	1	GROUP	1 C	LIG
