# created with PyMOL 3.1.3.1
@<TRIPOS>MOLECULE
predicted
26 29 1                 
SMALL
USER_CHARGES
@<TRIPOS>ATOM
1	CL18	-13.793	-0.005	-24.157	Cl	1	LIG1	0.000	
2	CL19	-13.531	-2.493	-22.264	Cl	1	LIG1	0.000	
3	 O17	-8.453	-0.201	-21.140	O.2	1	LIG1	0.000	
4	 N20	-6.023	-0.453	-17.739	N.2	1	LIG1	0.000	
5	 O21	-6.733	-4.944	-22.532	O.3	1	LIG1	0.000	
6	 C22	-7.952	-1.228	-21.589	C.2	1	LIG1	0.000	
7	 C23	-6.580	-1.090	-18.727	C.2	1	LIG1	0.000	
8	 C24	-11.144	0.003	-24.271	C.2	1	LIG1	0.000	
9	 C25	-9.926	-0.449	-23.941	C.2	1	LIG1	0.000	
10	 C26	-10.961	-2.192	-22.547	C.2	1	LIG1	0.000	
11	 C27	-2.744	1.364	-20.712	C.2	1	LIG1	0.000	
12	 C28	-3.298	0.706	-21.774	C.2	1	LIG1	0.000	
13	 C29	-12.286	-0.605	-23.759	C.2	1	LIG1	0.000	
14	 C30	-12.186	-1.708	-22.879	C.2	1	LIG1	0.000	
15	 C31	-9.868	-1.556	-23.061	C.2	1	LIG1	0.000	
16	 C32	-4.941	0.296	-17.950	C.2	1	LIG1	0.000	
17	 C33	-3.276	1.247	-19.458	C.2	1	LIG1	0.000	
18	 C34	-4.394	-0.068	-21.585	C.2	1	LIG1	0.000	
19	 C35	-6.134	-0.984	-20.044	C.2	1	LIG1	0.000	
20	 C36	-4.390	0.457	-19.235	C.2	1	LIG1	0.000	
21	 C37	-4.970	-0.211	-20.305	C.2	1	LIG1	0.000	
22	 N38	-6.757	-1.696	-21.105	N.pl3	1	LIG1	0.000	
23	 C39	-6.199	-2.900	-21.571	C.3	1	LIG1	0.000	
24	 C40	-8.053	-3.167	-23.178	C.3	1	LIG1	0.000	
25	 C41	-6.723	-3.550	-22.781	C.3	1	LIG1	0.000	
26	 C42	-8.537	-2.008	-22.660	C.3	1	LIG1	0.000	
@<TRIPOS>BOND
1 3 6 2
2 4 16 ar
3 6 22 1
4 6 26 1
5 4 7 ar
6 8 13 ar
7 8 9 ar
8 11 12 ar
9 12 18 ar
10 1 13 1
11 13 14 ar
12 2 14 1
13 10 14 ar
14 9 15 ar
15 10 15 ar
16 16 20 ar
17 11 17 ar
18 18 21 ar
19 7 19 ar
20 19 21 ar
21 17 20 ar
22 20 21 ar
23 19 22 1
24 22 23 1
25 24 25 1
26 5 25 1
27 23 25 1
28 15 26 1
29 24 26 1
@<TRIPOS>SUBSTRUCTURE
1	LIG1	1	GROUP	1 C	LIG
