# created with PyMOL 3.1.3.1
@<TRIPOS>MOLECULE
predicted
38 43 1                 
SMALL
USER_CHARGES
@<TRIPOS>ATOM
1	CL29	-13.049	-2.970	-21.903	Cl	1	LIG1	0.000	
2	 O26	-10.559	2.720	-24.202	O.2	1	LIG1	0.000	
3	 O27	-6.028	3.682	-24.331	O.2	1	LIG1	0.000	
4	 O28	-8.487	0.836	-21.314	O.2	1	LIG1	0.000	
5	 N30	-6.072	-0.568	-17.863	N.2	1	LIG1	0.000	
6	 N31	-7.765	-3.642	-26.545	N.2	1	LIG1	0.000	
7	 C32	-10.016	1.608	-24.085	C.2	1	LIG1	0.000	
8	 C33	-7.069	3.323	-23.984	C.2	1	LIG1	0.000	
9	 C34	-8.056	-0.182	-21.836	C.2	1	LIG1	0.000	
10	 C35	-8.273	-4.815	-26.944	C.2	1	LIG1	0.000	
11	 C36	-6.726	-0.937	-18.946	C.2	1	LIG1	0.000	
12	 C37	-12.825	-0.561	-22.970	C.2	1	LIG1	0.000	
13	 C38	-12.134	0.498	-23.471	C.2	1	LIG1	0.000	
14	 C39	-10.746	-1.754	-22.564	C.2	1	LIG1	0.000	
15	 C40	-2.856	1.717	-20.608	C.2	1	LIG1	0.000	
16	 C41	-3.517	1.347	-21.760	C.2	1	LIG1	0.000	
17	 C42	-8.571	-5.623	-25.875	C.2	1	LIG1	0.000	
18	 C43	-12.139	-1.698	-22.500	C.2	1	LIG1	0.000	
19	 C44	-10.745	0.453	-23.535	C.2	1	LIG1	0.000	
20	 C45	-10.052	-0.716	-23.151	C.2	1	LIG1	0.000	
21	 C46	-4.958	0.147	-17.981	C.2	1	LIG1	0.000	
22	 C47	-3.326	1.320	-19.351	C.2	1	LIG1	0.000	
23	 C48	-4.637	0.588	-21.671	C.2	1	LIG1	0.000	
24	 C49	-6.303	-0.588	-20.237	C.2	1	LIG1	0.000	
25	 C50	-8.276	-4.834	-24.716	C.2	1	LIG1	0.000	
26	 C51	-4.454	0.562	-19.227	C.2	1	LIG1	0.000	
27	 C52	-5.128	0.193	-20.413	C.2	1	LIG1	0.000	
28	 N53	-7.420	3.557	-22.733	N.pl3	1	LIG1	0.000	
29	 N54	-7.050	-0.953	-21.340	N.pl3	1	LIG1	0.000	
30	 N55	-8.659	1.474	-24.343	N.pl3	1	LIG1	0.000	
31	 N56	-7.811	-3.658	-25.172	N.2	1	LIG1	0.000	
32	 C57	-6.570	4.288	-21.832	C.3	1	LIG1	0.000	
33	 C58	-7.971	2.591	-24.936	C.3	1	LIG1	0.000	
34	 C59	-6.852	-2.151	-22.105	C.3	1	LIG1	0.000	
35	 C60	-7.292	-2.523	-24.483	C.3	1	LIG1	0.000	
36	 C61	-8.004	0.182	-24.317	C.3	1	LIG1	0.000	
37	 C62	-7.949	-2.123	-23.229	C.3	1	LIG1	0.000	
38	 C63	-8.548	-0.732	-23.166	C.3	1	LIG1	0.000	
@<TRIPOS>BOND
1 5 21 ar
2 2 7 2
3 3 8 2
4 8 33 1
5 4 9 2
6 9 29 1
7 6 10 ar
8 5 11 ar
9 12 13 ar
10 13 19 ar
11 14 18 ar
12 15 16 ar
13 16 23 ar
14 10 17 ar
15 1 18 1
16 12 18 ar
17 7 19 1
18 14 20 ar
19 19 20 ar
20 21 26 ar
21 15 22 ar
22 23 27 ar
23 11 24 ar
24 24 27 ar
25 17 25 ar
26 22 26 ar
27 26 27 ar
28 8 28 1
29 24 29 1
30 29 34 1
31 7 30 1
32 30 36 1
33 6 31 ar
34 25 31 ar
35 28 32 1
36 30 33 1
37 34 37 1
38 31 35 1
39 36 38 1
40 35 37 1
41 9 38 1
42 20 38 1
43 37 38 1
@<TRIPOS>SUBSTRUCTURE
1	LIG1	1	GROUP	1 C	LIG
