# created with PyMOL 3.1.3.1
@<TRIPOS>MOLECULE
predicted
22 24 1                 
SMALL
USER_CHARGES
@<TRIPOS>ATOM
1	 O25	-8.296	0.525	-21.294	O.2	1	LIG1	0.000	
2	 N26	-6.028	-0.456	-17.841	N.2	1	LIG1	0.000	
3	 C27	-8.100	-0.548	-21.810	C.2	1	LIG1	0.000	
4	 C28	-6.663	-1.018	-18.880	C.2	1	LIG1	0.000	
5	 C29	-2.807	1.452	-20.773	C.2	1	LIG1	0.000	
6	 C30	-3.431	0.903	-21.849	C.2	1	LIG1	0.000	
7	 C31	-4.949	0.247	-18.004	C.2	1	LIG1	0.000	
8	 C32	-3.295	1.249	-19.494	C.2	1	LIG1	0.000	
9	 C33	-4.563	0.165	-21.703	C.2	1	LIG1	0.000	
10	 C34	-6.240	-0.856	-20.163	C.2	1	LIG1	0.000	
11	 C35	-4.434	0.491	-19.293	C.2	1	LIG1	0.000	
12	 C36	-5.084	-0.074	-20.426	C.2	1	LIG1	0.000	
13	 N37	-8.810	-0.895	-22.908	N.pl3	1	LIG1	0.000	
14	 C38	-7.036	-1.483	-21.290	C.3	1	LIG1	0.000	
15	 C39	-13.253	-3.031	-24.781	C.3	1	LIG1	0.000	
16	 C40	-13.292	-2.109	-22.396	C.3	1	LIG1	0.000	
17	 C41	-8.903	-2.271	-23.373	C.3	1	LIG1	0.000	
18	 C42	-9.584	0.096	-23.633	C.3	1	LIG1	0.000	
19	 C43	-10.373	-2.676	-23.202	C.3	1	LIG1	0.000	
20	 C44	-11.043	-0.271	-23.493	C.3	1	LIG1	0.000	
21	 C45	-12.798	-1.997	-23.782	C.3	1	LIG1	0.000	
22	 C46	-11.302	-1.697	-23.885	C.3	1	LIG1	0.000	
@<TRIPOS>BOND
1 2 7 ar
2 1 3 2
3 3 14 1
4 2 4 ar
5 5 6 ar
6 6 9 ar
7 7 11 ar
8 5 8 ar
9 9 12 ar
10 4 10 ar
11 10 12 ar
12 8 11 ar
13 11 12 ar
14 3 13 1
15 13 18 1
16 10 14 1
17 15 21 1
18 13 17 1
19 18 20 1
20 17 19 1
21 16 21 1
22 21 22 1
23 19 22 1
24 20 22 1
@<TRIPOS>SUBSTRUCTURE
1	LIG1	1	GROUP	1 C	LIG
