# created with PyMOL 3.1.3.1
@<TRIPOS>MOLECULE
predicted
21 23 1                 
SMALL
USER_CHARGES
@<TRIPOS>ATOM
1	 O23	-8.257	0.488	-21.260	O.2	1	LIG1	0.000	
2	 N24	-6.003	-0.568	-17.830	N.2	1	LIG1	0.000	
3	 C25	-8.107	-0.598	-21.784	C.2	1	LIG1	0.000	
4	 C26	-6.669	-1.112	-18.853	C.2	1	LIG1	0.000	
5	 C27	-2.800	1.254	-20.820	C.2	1	LIG1	0.000	
6	 C28	-3.462	0.724	-21.879	C.2	1	LIG1	0.000	
7	 C29	-4.919	0.109	-18.025	C.2	1	LIG1	0.000	
8	 C30	-3.264	1.071	-19.535	C.2	1	LIG1	0.000	
9	 C31	-4.599	0.014	-21.706	C.2	1	LIG1	0.000	
10	 C32	-6.259	-0.969	-20.123	C.2	1	LIG1	0.000	
11	 C33	-4.413	0.341	-19.308	C.2	1	LIG1	0.000	
12	 C34	-5.092	-0.213	-20.420	C.2	1	LIG1	0.000	
13	 N35	-8.848	-0.895	-22.881	N.pl3	1	LIG1	0.000	
14	 C36	-7.095	-1.576	-21.253	C.3	1	LIG1	0.000	
15	 C37	-13.275	-3.102	-24.520	C.3	1	LIG1	0.000	
16	 C38	-9.665	0.133	-23.529	C.3	1	LIG1	0.000	
17	 C39	-8.952	-2.215	-23.435	C.3	1	LIG1	0.000	
18	 C40	-12.789	-2.089	-23.556	C.3	1	LIG1	0.000	
19	 C41	-11.097	-0.249	-23.329	C.3	1	LIG1	0.000	
20	 C42	-10.382	-2.671	-23.195	C.3	1	LIG1	0.000	
21	 C43	-11.345	-1.663	-23.832	C.3	1	LIG1	0.000	
@<TRIPOS>BOND
1 2 7 ar
2 1 3 2
3 3 14 1
4 2 4 ar
5 5 6 ar
6 6 9 ar
7 7 11 ar
8 5 8 ar
9 9 12 ar
10 4 10 ar
11 10 12 ar
12 8 11 ar
13 11 12 ar
14 3 13 1
15 13 17 1
16 10 14 1
17 15 18 1
18 13 16 1
19 17 20 1
20 18 21 1
21 16 19 1
22 19 21 1
23 20 21 1
@<TRIPOS>SUBSTRUCTURE
1	LIG1	1	GROUP	1 C	LIG
