# created with PyMOL 3.1.3.1
@<TRIPOS>MOLECULE
predicted
36 39 1                 
SMALL
USER_CHARGES
@<TRIPOS>ATOM
1	CL28	-12.960	-2.900	-22.082	Cl	1	LIG1	0.000	
2	 O23	-4.791	-4.885	-19.680	O.co2	1	LIG1	0.000	
3	 O24	-9.817	2.435	-24.580	O.2	1	LIG1	0.000	
4	 O25	-5.115	2.083	-24.348	O.2	1	LIG1	0.000	
5	 O26	-8.263	0.404	-21.358	O.2	1	LIG1	0.000	
6	 O27	-5.490	-5.475	-21.644	O.co2	1	LIG1	0.000	
7	 N29	-5.964	-0.242	-17.760	N.2	1	LIG1	0.000	
8	 C30	-5.534	-4.754	-20.659	C.2	1	LIG1	0.000	
9	 C31	-9.431	1.267	-24.352	C.2	1	LIG1	0.000	
10	 C32	-6.251	2.395	-24.193	C.2	1	LIG1	0.000	
11	 C33	-7.770	-0.597	-21.863	C.2	1	LIG1	0.000	
12	 C34	-7.972	-4.083	-20.771	C.3	1	LIG1	0.000	
13	 C35	-6.585	-3.631	-20.587	C.3	1	LIG1	0.000	
14	 C36	-6.567	-0.784	-18.798	C.2	1	LIG1	0.000	
15	 C37	-12.497	-0.506	-23.236	C.2	1	LIG1	0.000	
16	 C38	-11.685	0.466	-23.737	C.2	1	LIG1	0.000	
17	 C39	-10.568	-1.873	-22.711	C.2	1	LIG1	0.000	
18	 C40	-2.583	1.502	-20.644	C.2	1	LIG1	0.000	
19	 C41	-3.184	0.963	-21.736	C.2	1	LIG1	0.000	
20	 C42	-11.940	-1.678	-22.710	C.2	1	LIG1	0.000	
21	 C43	-10.309	0.260	-23.766	C.2	1	LIG1	0.000	
22	 C44	-9.748	-0.936	-23.295	C.2	1	LIG1	0.000	
23	 C45	-4.846	0.444	-17.920	C.2	1	LIG1	0.000	
24	 C46	-3.126	1.332	-19.378	C.2	1	LIG1	0.000	
25	 C47	-4.322	0.243	-21.591	C.2	1	LIG1	0.000	
26	 C48	-6.099	-0.638	-20.100	C.2	1	LIG1	0.000	
27	 C49	-4.274	0.617	-19.192	C.2	1	LIG1	0.000	
28	 C50	-4.885	0.061	-20.314	C.2	1	LIG1	0.000	
29	 N51	-6.655	3.056	-23.103	N.pl3	1	LIG1	0.000	
30	 N52	-6.736	-1.239	-21.228	N.pl3	1	LIG1	0.000	
31	 N53	-8.120	0.939	-24.602	N.pl3	1	LIG1	0.000	
32	 C54	-5.731	3.537	-22.148	C.3	1	LIG1	0.000	
33	 C55	-6.171	-2.552	-21.621	C.3	1	LIG1	0.000	
34	 C56	-7.276	1.957	-25.173	C.3	1	LIG1	0.000	
35	 C57	-7.639	-0.423	-24.426	C.3	1	LIG1	0.000	
36	 C58	-8.282	-1.126	-23.228	C.3	1	LIG1	0.000	
@<TRIPOS>BOND
1 7 23 ar
2 2 8 ar
3 6 8 ar
4 3 9 2
5 9 21 1
6 4 10 2
7 10 29 1
8 5 11 2
9 11 36 1
10 12 13 1
11 8 13 1
12 13 33 1
13 7 14 ar
14 15 20 ar
15 15 16 ar
16 17 22 ar
17 18 19 ar
18 19 25 ar
19 1 20 1
20 17 20 ar
21 16 21 ar
22 21 22 ar
23 23 27 ar
24 18 24 ar
25 25 28 ar
26 14 26 ar
27 26 28 ar
28 24 27 ar
29 27 28 ar
30 29 32 1
31 11 30 1
32 26 30 1
33 9 31 1
34 31 34 1
35 30 33 1
36 10 34 1
37 31 35 1
38 22 36 1
39 35 36 1
@<TRIPOS>SUBSTRUCTURE
1	LIG1	1	GROUP	1 C	LIG
