# created with PyMOL 3.1.3.1
@<TRIPOS>MOLECULE
predicted
37 41 1                 
SMALL
USER_CHARGES
@<TRIPOS>ATOM
1	 O30	-10.753	2.277	-24.327	O.2	1	LIG1	0.000	
2	 O31	-5.931	2.053	-24.355	O.2	1	LIG1	0.000	
3	 O32	-8.638	0.545	-21.457	O.2	1	LIG1	0.000	
4	 N34	-6.201	-0.676	-17.996	N.2	1	LIG1	0.000	
5	 O35	-8.016	-4.462	-24.529	O.3	1	LIG1	0.000	
6	 C36	-10.253	1.137	-24.158	C.2	1	LIG1	0.000	
7	 C37	-7.042	2.393	-24.148	C.2	1	LIG1	0.000	
8	 C38	-8.271	-0.535	-21.919	C.2	1	LIG1	0.000	
9	 C39	-6.901	-1.096	-19.036	C.2	1	LIG1	0.000	
10	 C40	-13.139	-0.828	-22.868	C.2	1	LIG1	0.000	
11	 C41	-12.409	0.180	-23.422	C.2	1	LIG1	0.000	
12	 C42	-11.116	-2.110	-22.455	C.2	1	LIG1	0.000	
13	 C43	-2.852	1.091	-20.959	C.2	1	LIG1	0.000	
14	 C44	-3.545	0.632	-22.058	C.2	1	LIG1	0.000	
15	 C45	-12.503	-1.980	-22.373	C.2	1	LIG1	0.000	
16	 C46	-11.031	0.062	-23.537	C.2	1	LIG1	0.000	
17	 C47	-10.380	-1.121	-23.108	C.2	1	LIG1	0.000	
18	 C48	-5.039	-0.049	-18.188	C.2	1	LIG1	0.000	
19	 C49	-3.349	0.871	-19.671	C.2	1	LIG1	0.000	
20	 C50	-4.722	-0.031	-21.904	C.2	1	LIG1	0.000	
21	 C51	-6.466	-0.915	-20.348	C.2	1	LIG1	0.000	
22	 C52	-4.526	0.204	-19.479	C.2	1	LIG1	0.000	
23	 C53	-5.241	-0.247	-20.618	C.2	1	LIG1	0.000	
24	 N54	-7.381	3.079	-23.059	N.pl3	1	LIG1	0.000	
25	 N55	-7.272	-1.303	-21.409	N.pl3	1	LIG1	0.000	
26	 N56	-8.918	0.923	-24.475	N.pl3	1	LIG1	0.000	
27	 C57	-6.405	3.548	-22.137	C.3	1	LIG1	0.000	
28	 C58	-8.147	1.981	-25.083	C.3	1	LIG1	0.000	
29	 C59	-7.682	-4.537	-26.951	C.3	1	LIG1	0.000	
30	 C60	-8.441	-6.545	-25.580	C.3	1	LIG1	0.000	
31	 C61	-8.479	-5.073	-25.765	C.3	1	LIG1	0.000	
32	 C62	-8.516	-3.268	-24.352	C.3	1	LIG1	0.000	
33	 C63	-7.174	-2.551	-22.120	C.3	1	LIG1	0.000	
34	 C64	-8.357	-0.412	-24.416	C.3	1	LIG1	0.000	
35	 C65	-8.297	-2.573	-23.078	C.3	1	LIG1	0.000	
36	 C66	-8.866	-1.184	-23.151	C.3	1	LIG1	0.000	
37	 F33	-13.247	-2.931	-21.830	 F	1	LIG1	0.000	
@<TRIPOS>BOND
1 4 18 ar
2 5 31 1
3 1 6 2
4 2 7 2
5 7 28 1
6 3 8 2
7 8 25 1
8 4 9 ar
9 10 11 ar
10 11 16 ar
11 12 15 ar
12 13 14 ar
13 14 20 ar
14 10 15 ar
15 15 37 1
16 6 16 1
17 12 17 ar
18 16 17 ar
19 18 22 ar
20 13 19 ar
21 20 23 ar
22 9 21 ar
23 21 23 ar
24 19 22 ar
25 22 23 ar
26 7 24 1
27 21 25 1
28 25 33 1
29 6 26 1
30 26 34 1
31 24 27 1
32 26 28 1
33 29 31 1
34 30 31 1
35 5 32 1
36 33 35 1
37 34 36 1
38 32 35 1
39 8 36 1
40 17 36 1
41 35 36 1
@<TRIPOS>SUBSTRUCTURE
1	LIG1	1	GROUP	1 C	LIG
