# created with PyMOL 3.1.3.1
@<TRIPOS>MOLECULE
predicted
22 25 1                 
SMALL
USER_CHARGES
@<TRIPOS>ATOM
1	 O17	9.080	0.284	20.994	O.2	1	LIG1	0.000	
2	 O18	6.571	-3.408	21.886	O.2	1	LIG1	0.000	
3	 N19	6.258	-0.686	17.831	N.2	1	LIG1	0.000	
4	 C20	7.039	-1.152	18.821	C.2	1	LIG1	0.000	
5	 C21	3.182	1.135	21.022	C.2	1	LIG1	0.000	
6	 C22	3.938	0.641	22.049	C.2	1	LIG1	0.000	
7	 C23	5.126	-0.046	18.092	C.2	1	LIG1	0.000	
8	 C24	3.567	0.931	19.721	C.2	1	LIG1	0.000	
9	 C25	5.072	-0.068	21.816	C.2	1	LIG1	0.000	
10	 C26	6.672	-1.068	20.150	C.2	1	LIG1	0.000	
11	 C27	7.477	-2.574	22.021	C.2	1	LIG1	0.000	
12	 C28	8.536	-2.496	23.043	C.3	1	LIG1	0.000	
13	 C29	8.725	-0.762	21.559	C.2	1	LIG1	0.000	
14	 C30	4.714	0.202	19.421	C.2	1	LIG1	0.000	
15	 C31	5.494	-0.300	20.476	C.2	1	LIG1	0.000	
16	 N32	7.575	-1.469	21.200	N.pl3	1	LIG1	0.000	
17	 N33	9.284	-1.358	22.596	N.pl3	1	LIG1	0.000	
18	 C34	9.332	-3.640	23.378	C.3	1	LIG1	0.000	
19	 C35	12.652	-1.749	24.188	C.3	1	LIG1	0.000	
20	 C36	10.516	-0.947	23.260	C.3	1	LIG1	0.000	
21	 C37	10.590	-3.247	24.215	C.3	1	LIG1	0.000	
22	 C38	11.409	-2.182	23.450	C.3	1	LIG1	0.000	
@<TRIPOS>BOND
1 3 7 ar
2 3 4 ar
3 5 6 ar
4 6 9 ar
5 7 14 ar
6 5 8 ar
7 9 15 ar
8 4 10 ar
9 10 15 ar
10 2 11 2
11 11 16 1
12 11 12 1
13 12 17 1
14 1 13 2
15 13 17 1
16 8 14 ar
17 14 15 ar
18 10 16 1
19 13 16 1
20 17 20 1
21 12 18 1
22 19 22 1
23 18 21 1
24 20 22 1
25 21 22 1
@<TRIPOS>SUBSTRUCTURE
1	LIG1	1	GROUP	1 C	LIG
