# created with PyMOL 3.1.3.1
@<TRIPOS>MOLECULE
predicted
20 22 1                 
SMALL
USER_CHARGES
@<TRIPOS>ATOM
1	 O21	-8.449	0.496	-21.262	O.2	1	LIG1	0.000	
2	 N22	-6.097	-0.575	-17.880	N.2	1	LIG1	0.000	
3	 C23	-8.301	-0.580	-21.775	C.2	1	LIG1	0.000	
4	 C24	-6.765	-1.098	-18.890	C.2	1	LIG1	0.000	
5	 C25	-2.971	1.405	-20.893	C.2	1	LIG1	0.000	
6	 C26	-3.651	0.897	-21.954	C.2	1	LIG1	0.000	
7	 C27	-5.023	0.124	-18.076	C.2	1	LIG1	0.000	
8	 C28	-3.407	1.168	-19.608	C.2	1	LIG1	0.000	
9	 C29	-4.789	0.148	-21.767	C.2	1	LIG1	0.000	
10	 C30	-6.412	-0.906	-20.200	C.2	1	LIG1	0.000	
11	 C31	-4.542	0.413	-19.364	C.2	1	LIG1	0.000	
12	 C32	-5.239	-0.122	-20.484	C.2	1	LIG1	0.000	
13	 N33	-9.094	-0.913	-22.833	N.pl3	1	LIG1	0.000	
14	 C34	-7.230	-1.516	-21.307	C.3	1	LIG1	0.000	
15	 C35	-13.020	-2.295	-23.233	C.3	1	LIG1	0.000	
16	 C36	-10.003	0.066	-23.416	C.3	1	LIG1	0.000	
17	 C37	-9.173	-2.243	-23.405	C.3	1	LIG1	0.000	
18	 C38	-11.406	-0.395	-23.098	C.3	1	LIG1	0.000	
19	 C39	-10.568	-2.768	-23.088	C.3	1	LIG1	0.000	
20	 C40	-11.631	-1.800	-23.631	C.3	1	LIG1	0.000	
@<TRIPOS>BOND
1 2 7 ar
2 1 3 2
3 3 14 1
4 2 4 ar
5 5 6 ar
6 6 9 ar
7 7 11 ar
8 5 8 ar
9 9 12 ar
10 4 10 ar
11 10 12 ar
12 8 11 ar
13 11 12 ar
14 3 13 1
15 13 17 1
16 10 14 1
17 15 20 1
18 13 16 1
19 17 19 1
20 16 18 1
21 18 20 1
22 19 20 1
@<TRIPOS>SUBSTRUCTURE
1	LIG1	1	GROUP	1 C	LIG
