# created with PyMOL 3.1.3.1
@<TRIPOS>MOLECULE
predicted
40 45 1                 
SMALL
USER_CHARGES
@<TRIPOS>ATOM
1	CL38	-13.307	-3.176	-21.770	Cl	1	LIG1	0.000	
2	 O34	-10.771	2.521	-24.209	O.2	1	LIG1	0.000	
3	 O35	-8.635	0.684	-21.363	O.2	1	LIG1	0.000	
4	 O36	-5.587	8.913	-23.309	O.2	1	LIG1	0.000	
5	 O37	-3.448	7.842	-23.262	O.2	1	LIG1	0.000	
6	 N39	-6.161	-0.577	-17.953	N.2	1	LIG1	0.000	
7	 C40	-10.247	1.392	-24.065	C.2	1	LIG1	0.000	
8	 C41	-8.243	-0.340	-21.865	C.2	1	LIG1	0.000	
9	 C42	-6.852	-0.978	-19.001	C.2	1	LIG1	0.000	
10	 C43	-13.070	-0.736	-22.905	C.2	1	LIG1	0.000	
11	 C44	-12.373	0.320	-23.422	C.2	1	LIG1	0.000	
12	 C45	-11.001	-1.929	-22.491	C.2	1	LIG1	0.000	
13	 C46	-2.894	1.427	-20.869	C.2	1	LIG1	0.000	
14	 C47	-3.589	1.006	-21.979	C.2	1	LIG1	0.000	
15	 C48	-12.390	-1.855	-22.428	C.2	1	LIG1	0.000	
16	 C49	-10.998	0.253	-23.515	C.2	1	LIG1	0.000	
17	 C50	-10.314	-0.909	-23.114	C.2	1	LIG1	0.000	
18	 C51	-5.006	0.092	-18.119	C.2	1	LIG1	0.000	
19	 C52	-3.352	1.121	-19.589	C.2	1	LIG1	0.000	
20	 C53	-4.738	0.301	-21.831	C.2	1	LIG1	0.000	
21	 C54	-6.442	-0.725	-20.315	C.2	1	LIG1	0.000	
22	 C55	-4.525	0.408	-19.408	C.2	1	LIG1	0.000	
23	 C56	-5.235	-0.001	-20.547	C.2	1	LIG1	0.000	
24	 N57	-7.228	-1.088	-21.395	N.pl3	1	LIG1	0.000	
25	 N58	-8.895	1.258	-24.311	N.pl3	1	LIG1	0.000	
26	 N59	-5.491	6.445	-22.710	N.3	1	LIG1	0.000	
27	 C60	-8.127	2.375	-24.739	C.3	1	LIG1	0.000	
28	 C61	-4.738	5.364	-23.447	C.3	1	LIG1	0.000	
29	 C62	-6.953	6.508	-22.948	C.3	1	LIG1	0.000	
30	 C63	-8.195	-3.061	-24.370	C.3	1	LIG1	0.000	
31	 C64	-7.072	-2.290	-22.149	C.3	1	LIG1	0.000	
32	 C65	-8.293	-0.059	-24.350	C.3	1	LIG1	0.000	
33	 C66	-7.467	2.920	-23.449	C.3	1	LIG1	0.000	
34	 C67	-5.423	4.062	-23.301	C.3	1	LIG1	0.000	
35	 C68	-7.571	5.195	-22.830	C.3	1	LIG1	0.000	
36	 C69	-4.621	8.239	-21.009	C.3	1	LIG1	0.000	
37	 C70	-8.205	-2.297	-23.133	C.3	1	LIG1	0.000	
38	 C71	-8.807	-0.924	-23.157	C.3	1	LIG1	0.000	
39	 N72	-6.857	4.188	-23.638	N.3	1	LIG1	0.000	
40	 S73	-4.753	7.957	-22.668	S.O2	1	LIG1	0.000	
@<TRIPOS>BOND
1 6 18 ar
2 2 7 2
3 7 16 1
4 3 8 2
5 8 38 1
6 6 9 ar
7 10 15 ar
8 10 11 ar
9 12 17 ar
10 13 14 ar
11 14 20 ar
12 1 15 1
13 12 15 ar
14 11 16 ar
15 16 17 ar
16 18 22 ar
17 13 19 ar
18 20 23 ar
19 9 21 ar
20 21 23 ar
21 19 22 ar
22 22 23 ar
23 8 24 1
24 21 24 1
25 7 25 1
26 25 27 1
27 26 29 1
28 26 40 1
29 27 33 1
30 26 28 1
31 29 35 1
32 30 37 1
33 24 31 1
34 25 32 1
35 33 39 1
36 28 34 1
37 31 37 1
38 37 38 1
39 17 38 1
40 32 38 1
41 34 39 1
42 35 39 1
43 4 40 2
44 5 40 2
45 36 40 1
@<TRIPOS>SUBSTRUCTURE
1	LIG1	1	GROUP	1 C	LIG
