# created with PyMOL 3.1.3.1
@<TRIPOS>MOLECULE
predicted
36 41 1                 
SMALL
USER_CHARGES
@<TRIPOS>ATOM
1	 O25	-10.913	2.243	-24.519	O.2	1	LIG1	0.000	
2	 O26	-8.767	0.613	-21.532	O.2	1	LIG1	0.000	
3	 N28	-5.903	4.579	-24.095	N.2	1	LIG1	0.000	
4	 N29	-7.605	2.736	-23.055	N.2	1	LIG1	0.000	
5	 N30	-6.214	-0.474	-18.055	N.2	1	LIG1	0.000	
6	 C31	-10.379	1.132	-24.299	C.2	1	LIG1	0.000	
7	 C32	-8.348	-0.443	-21.973	C.2	1	LIG1	0.000	
8	 C33	-6.854	3.513	-22.255	C.2	1	LIG1	0.000	
9	 C34	-6.640	3.766	-24.943	C.2	1	LIG1	0.000	
10	 C35	-6.920	-0.920	-19.070	C.2	1	LIG1	0.000	
11	 C36	-6.017	4.432	-22.760	C.2	1	LIG1	0.000	
12	 C37	-7.505	2.847	-24.395	C.2	1	LIG1	0.000	
13	 C38	-13.211	-0.892	-22.936	C.2	1	LIG1	0.000	
14	 C39	-12.514	0.125	-23.525	C.2	1	LIG1	0.000	
15	 C40	-11.142	-2.102	-22.483	C.2	1	LIG1	0.000	
16	 C41	-2.917	1.327	-21.117	C.2	1	LIG1	0.000	
17	 C42	-3.638	0.859	-22.210	C.2	1	LIG1	0.000	
18	 C43	-12.537	-2.016	-22.410	C.2	1	LIG1	0.000	
19	 C44	-11.116	0.046	-23.623	C.2	1	LIG1	0.000	
20	 C45	-10.429	-1.106	-23.160	C.2	1	LIG1	0.000	
21	 C46	-5.050	0.184	-18.281	C.2	1	LIG1	0.000	
22	 C47	-3.379	1.101	-19.820	C.2	1	LIG1	0.000	
23	 C48	-4.804	0.190	-22.006	C.2	1	LIG1	0.000	
24	 C49	-6.519	-0.715	-20.407	C.2	1	LIG1	0.000	
25	 C50	-4.565	0.424	-19.586	C.2	1	LIG1	0.000	
26	 C51	-5.290	-0.034	-20.686	C.2	1	LIG1	0.000	
27	 N52	-7.318	-1.153	-21.458	N.pl3	1	LIG1	0.000	
28	 N53	-9.039	0.933	-24.635	N.pl3	1	LIG1	0.000	
29	 C54	-5.181	5.332	-21.907	C.3	1	LIG1	0.000	
30	 C55	-8.320	1.956	-25.344	C.3	1	LIG1	0.000	
31	 C56	-8.324	-3.372	-24.249	C.3	1	LIG1	0.000	
32	 C57	-7.158	-2.416	-22.110	C.3	1	LIG1	0.000	
33	 C58	-8.396	-0.383	-24.478	C.3	1	LIG1	0.000	
34	 C59	-8.309	-2.498	-23.069	C.3	1	LIG1	0.000	
35	 C60	-8.916	-1.130	-23.201	C.3	1	LIG1	0.000	
36	 F27	-13.249	-2.982	-21.851	 F	1	LIG1	0.000	
@<TRIPOS>BOND
1 4 12 ar
2 5 21 ar
3 1 6 2
4 2 7 2
5 7 27 1
6 4 8 ar
7 3 9 ar
8 5 10 ar
9 3 11 ar
10 8 11 ar
11 9 12 ar
12 12 30 1
13 13 14 ar
14 14 19 ar
15 15 18 ar
16 16 17 ar
17 17 23 ar
18 13 18 ar
19 18 36 1
20 6 19 1
21 15 20 ar
22 19 20 ar
23 21 25 ar
24 16 22 ar
25 23 26 ar
26 10 24 ar
27 24 26 ar
28 22 25 ar
29 25 26 ar
30 24 27 1
31 27 32 1
32 6 28 1
33 28 33 1
34 11 29 1
35 28 30 1
36 32 34 1
37 33 35 1
38 31 34 1
39 7 35 1
40 20 35 1
41 34 35 1
@<TRIPOS>SUBSTRUCTURE
1	LIG1	1	GROUP	1 C	LIG
