# created with PyMOL 3.1.3.1
@<TRIPOS>MOLECULE
predicted
21 23 1                 
SMALL
USER_CHARGES
@<TRIPOS>ATOM
1	 O21	-8.264	0.512	-21.448	O.2	1	LIG1	0.000	
2	 N22	-6.055	-0.621	-17.883	N.2	1	LIG1	0.000	
3	 C23	-8.150	-0.588	-21.928	C.2	1	LIG1	0.000	
4	 C24	-10.711	0.483	-23.655	C.3	1	LIG1	0.000	
5	 C25	-11.772	-0.538	-23.625	C.3	1	LIG1	0.000	
6	 C26	-6.759	-1.172	-18.892	C.2	1	LIG1	0.000	
7	 C27	-2.891	1.129	-20.962	C.2	1	LIG1	0.000	
8	 C28	-3.591	0.598	-22.007	C.2	1	LIG1	0.000	
9	 C29	-4.963	0.031	-18.101	C.2	1	LIG1	0.000	
10	 C30	-3.332	0.959	-19.657	C.2	1	LIG1	0.000	
11	 C31	-4.744	-0.090	-21.795	C.2	1	LIG1	0.000	
12	 C32	-6.394	-1.030	-20.185	C.2	1	LIG1	0.000	
13	 C33	-4.489	0.247	-19.401	C.2	1	LIG1	0.000	
14	 C34	-5.209	-0.302	-20.495	C.2	1	LIG1	0.000	
15	 N35	-8.776	-0.870	-23.147	N.pl3	1	LIG1	0.000	
16	 C36	-7.258	-1.627	-21.282	C.3	1	LIG1	0.000	
17	 C37	-9.293	0.132	-24.038	C.3	1	LIG1	0.000	
18	 C38	-9.031	-2.212	-23.620	C.3	1	LIG1	0.000	
19	 C39	-12.827	-2.774	-23.129	C.3	1	LIG1	0.000	
20	 C40	-10.356	-2.657	-23.043	C.3	1	LIG1	0.000	
21	 C41	-11.569	-2.066	-23.680	C.3	1	LIG1	0.000	
@<TRIPOS>BOND
1 2 9 ar
2 1 3 2
3 3 16 1
4 4 17 1
5 4 5 1
6 2 6 ar
7 7 8 ar
8 8 11 ar
9 9 13 ar
10 7 10 ar
11 11 14 ar
12 6 12 ar
13 12 14 ar
14 10 13 ar
15 13 14 ar
16 3 15 1
17 15 18 1
18 12 16 1
19 15 17 1
20 18 20 1
21 19 21 1
22 5 21 1
23 20 21 1
@<TRIPOS>SUBSTRUCTURE
1	LIG1	1	GROUP	1 C	LIG
