# created with PyMOL 3.1.3.1
@<TRIPOS>MOLECULE
predicted
26 29 1                 
SMALL
USER_CHARGES
@<TRIPOS>ATOM
1	CL19	-13.189	-2.544	-22.580	Cl	1	LIG1	0.000	
2	 O17	-8.624	1.389	-25.466	O.2	1	LIG1	0.000	
3	 O18	-8.170	-0.075	-21.560	O.2	1	LIG1	0.000	
4	 N20	-6.031	-0.435	-17.876	N.2	1	LIG1	0.000	
5	 C21	-8.553	0.280	-24.947	C.2	1	LIG1	0.000	
6	 C22	-7.631	-1.093	-21.933	C.2	1	LIG1	0.000	
7	 C23	-6.561	-1.030	-18.927	C.2	1	LIG1	0.000	
8	 C24	-12.079	-0.598	-24.052	C.2	1	LIG1	0.000	
9	 C25	-11.025	0.053	-24.607	C.2	1	LIG1	0.000	
10	 C26	-10.578	-2.113	-22.921	C.2	1	LIG1	0.000	
11	 C27	-2.615	1.353	-20.660	C.2	1	LIG1	0.000	
12	 C28	-3.158	0.746	-21.756	C.2	1	LIG1	0.000	
13	 C29	-11.857	-1.682	-23.215	C.2	1	LIG1	0.000	
14	 C30	-9.723	-0.366	-24.339	C.2	1	LIG1	0.000	
15	 C31	-9.501	-1.491	-23.521	C.2	1	LIG1	0.000	
16	 C32	-4.926	0.284	-17.988	C.2	1	LIG1	0.000	
17	 C33	-3.184	1.219	-19.406	C.2	1	LIG1	0.000	
18	 C34	-4.268	-0.007	-21.636	C.2	1	LIG1	0.000	
19	 C35	-6.007	-0.942	-20.195	C.2	1	LIG1	0.000	
20	 C36	-4.314	0.449	-19.254	C.2	1	LIG1	0.000	
21	 C37	-4.858	-0.170	-20.380	C.2	1	LIG1	0.000	
22	 N38	-6.574	-1.613	-21.299	N.pl3	1	LIG1	0.000	
23	 N39	-7.317	-0.322	-24.859	N.pl3	1	LIG1	0.000	
24	 C40	-6.169	0.302	-25.475	C.3	1	LIG1	0.000	
25	 C41	-7.186	-1.672	-24.315	C.3	1	LIG1	0.000	
26	 C42	-8.116	-1.915	-23.144	C.3	1	LIG1	0.000	
@<TRIPOS>BOND
1 4 16 ar
2 2 5 2
3 3 6 2
4 6 22 1
5 4 7 ar
6 8 9 ar
7 9 14 ar
8 10 13 ar
9 11 12 ar
10 12 18 ar
11 1 13 1
12 8 13 ar
13 5 14 1
14 10 15 ar
15 14 15 ar
16 16 20 ar
17 11 17 ar
18 18 21 ar
19 7 19 ar
20 19 21 ar
21 17 20 ar
22 20 21 ar
23 19 22 1
24 5 23 1
25 23 25 1
26 23 24 1
27 25 26 1
28 6 26 1
29 15 26 1
@<TRIPOS>SUBSTRUCTURE
1	LIG1	1	GROUP	1 C	LIG
