# created with PyMOL 3.1.3.1
@<TRIPOS>MOLECULE
predicted
25 28 1                 
SMALL
USER_CHARGES
@<TRIPOS>ATOM
1	 O23	-8.303	0.018	-21.257	O.2	1	LIG1	0.000	
2	 N24	-6.039	-0.664	-17.661	N.2	1	LIG1	0.000	
3	 C25	-7.916	-1.023	-21.774	C.2	1	LIG1	0.000	
4	 C26	-6.618	-1.301	-18.684	C.2	1	LIG1	0.000	
5	 C27	-13.265	-1.869	-23.147	C.2	1	LIG1	0.000	
6	 C28	-12.267	-2.640	-22.689	C.2	1	LIG1	0.000	
7	 C29	-12.988	-0.689	-23.776	C.2	1	LIG1	0.000	
8	 C30	-10.960	-2.244	-22.866	C.2	1	LIG1	0.000	
9	 C31	-11.676	-0.290	-23.969	C.2	1	LIG1	0.000	
10	 C32	-2.936	1.407	-20.610	C.2	1	LIG1	0.000	
11	 C33	-3.506	0.787	-21.675	C.2	1	LIG1	0.000	
12	 C34	-10.662	-1.088	-23.564	C.2	1	LIG1	0.000	
13	 C35	-5.014	0.106	-17.835	C.2	1	LIG1	0.000	
14	 C36	-3.415	1.195	-19.338	C.2	1	LIG1	0.000	
15	 C37	-4.591	-0.035	-21.516	C.2	1	LIG1	0.000	
16	 C38	-6.181	-1.147	-19.977	C.2	1	LIG1	0.000	
17	 C39	-4.497	0.352	-19.123	C.2	1	LIG1	0.000	
18	 C40	-5.086	-0.291	-20.230	C.2	1	LIG1	0.000	
19	 N41	-8.360	-1.440	-22.980	N.pl3	1	LIG1	0.000	
20	 C42	-6.910	-1.887	-21.065	C.3	1	LIG1	0.000	
21	 C43	-7.992	-2.687	-23.609	C.3	1	LIG1	0.000	
22	 C44	-7.319	-2.473	-24.942	C.3	1	LIG1	0.000	
23	 C45	-8.278	-1.638	-25.840	C.3	1	LIG1	0.000	
24	 C46	-8.700	-0.346	-25.110	C.3	1	LIG1	0.000	
25	 C47	-9.258	-0.577	-23.713	C.3	1	LIG1	0.000	
@<TRIPOS>BOND
1 1 3 2
2 2 13 ar
3 3 19 1
4 3 20 1
5 2 4 ar
6 5 7 ar
7 5 6 ar
8 7 9 ar
9 6 8 ar
10 10 11 ar
11 11 15 ar
12 8 12 ar
13 9 12 ar
14 13 17 ar
15 10 14 ar
16 15 18 ar
17 4 16 ar
18 16 18 ar
19 14 17 ar
20 17 18 ar
21 19 21 1
22 19 25 1
23 16 20 1
24 21 22 1
25 22 23 1
26 23 24 1
27 24 25 1
28 12 25 1
@<TRIPOS>SUBSTRUCTURE
1	LIG1	1	GROUP	1 C	LIG
