# created with PyMOL 3.1.3.1
@<TRIPOS>MOLECULE
predicted
38 43 1                 
SMALL
USER_CHARGES
@<TRIPOS>ATOM
1	CL26	-13.143	-3.130	-21.778	Cl	1	LIG1	0.000	
2	 O23	-10.621	2.453	-24.269	O.2	1	LIG1	0.000	
3	 O24	-5.922	2.644	-24.126	O.2	1	LIG1	0.000	
4	 O25	-8.546	0.748	-21.353	O.2	1	LIG1	0.000	
5	 N27	-6.514	-6.309	-24.570	N.2	1	LIG1	0.000	
6	 N28	-7.511	-5.429	-24.799	N.2	1	LIG1	0.000	
7	 N29	-5.982	-4.447	-23.715	N.2	1	LIG1	0.000	
8	 N30	-6.140	-0.508	-17.832	N.2	1	LIG1	0.000	
9	 N31	-5.580	-5.703	-23.914	N.2	1	LIG1	0.000	
10	 C32	-10.091	1.344	-24.105	C.2	1	LIG1	0.000	
11	 C33	-7.069	2.867	-24.021	C.2	1	LIG1	0.000	
12	 C34	-8.142	-0.303	-21.811	C.2	1	LIG1	0.000	
13	 C35	-7.170	-4.305	-24.240	C.2	1	LIG1	0.000	
14	 C36	-6.819	-0.912	-18.887	C.2	1	LIG1	0.000	
15	 C37	-12.909	-0.747	-22.923	C.2	1	LIG1	0.000	
16	 C38	-12.213	0.295	-23.437	C.2	1	LIG1	0.000	
17	 C39	-10.850	-1.942	-22.474	C.2	1	LIG1	0.000	
18	 C40	-2.795	1.374	-20.713	C.2	1	LIG1	0.000	
19	 C41	-3.473	0.960	-21.827	C.2	1	LIG1	0.000	
20	 C42	-12.233	-1.871	-22.418	C.2	1	LIG1	0.000	
21	 C43	-10.828	0.238	-23.510	C.2	1	LIG1	0.000	
22	 C44	-10.141	-0.925	-23.080	C.2	1	LIG1	0.000	
23	 C45	-4.986	0.137	-17.996	C.2	1	LIG1	0.000	
24	 C46	-3.290	1.104	-19.445	C.2	1	LIG1	0.000	
25	 C47	-4.640	0.289	-21.695	C.2	1	LIG1	0.000	
26	 C48	-6.389	-0.649	-20.194	C.2	1	LIG1	0.000	
27	 C49	-4.469	0.430	-19.273	C.2	1	LIG1	0.000	
28	 C50	-5.165	0.021	-20.422	C.2	1	LIG1	0.000	
29	 N51	-7.569	3.568	-22.996	N.pl3	1	LIG1	0.000	
30	 N52	-7.151	-1.047	-21.277	N.pl3	1	LIG1	0.000	
31	 N53	-8.743	1.183	-24.396	N.pl3	1	LIG1	0.000	
32	 C54	-6.731	4.185	-22.051	C.3	1	LIG1	0.000	
33	 C55	-8.036	2.276	-24.996	C.3	1	LIG1	0.000	
34	 C56	-8.007	-3.020	-24.244	C.3	1	LIG1	0.000	
35	 C57	-6.997	-2.280	-21.954	C.3	1	LIG1	0.000	
36	 C58	-8.098	-0.118	-24.303	C.3	1	LIG1	0.000	
37	 C59	-8.040	-2.317	-23.010	C.3	1	LIG1	0.000	
38	 C60	-8.648	-0.938	-23.087	C.3	1	LIG1	0.000	
@<TRIPOS>BOND
1 5 9 ar
2 5 6 ar
3 8 23 ar
4 7 9 ar
5 2 10 2
6 3 11 2
7 11 33 1
8 4 12 2
9 12 30 1
10 6 13 ar
11 7 13 ar
12 8 14 ar
13 15 16 ar
14 16 21 ar
15 17 20 ar
16 18 19 ar
17 19 25 ar
18 1 20 1
19 15 20 ar
20 10 21 1
21 17 22 ar
22 21 22 ar
23 23 27 ar
24 18 24 ar
25 25 28 ar
26 14 26 ar
27 26 28 ar
28 24 27 ar
29 27 28 ar
30 11 29 1
31 26 30 1
32 30 35 1
33 10 31 1
34 31 36 1
35 29 32 1
36 31 33 1
37 13 34 1
38 35 37 1
39 36 38 1
40 34 37 1
41 12 38 1
42 22 38 1
43 37 38 1
@<TRIPOS>SUBSTRUCTURE
1	LIG1	1	GROUP	1 C	LIG
