# created with PyMOL 3.1.3.1
@<TRIPOS>MOLECULE
predicted
30 34 1                 
SMALL
USER_CHARGES
@<TRIPOS>ATOM
1	 O17	-4.788	-3.325	-21.090	O.2	1	LIG1	0.000	
2	 O18	-7.882	-0.112	-21.750	O.2	1	LIG1	0.000	
3	 O19	-3.193	-0.485	-26.472	O.2	1	LIG1	0.000	
4	 O20	-4.446	1.483	-27.224	O.2	1	LIG1	0.000	
5	 N21	-5.822	-0.317	-17.688	N.2	1	LIG1	0.000	
6	 O22	-9.183	-2.422	-25.174	O.3	1	LIG1	0.000	
7	 C23	-5.703	-2.763	-21.547	C.2	1	LIG1	0.000	
8	 C24	-7.258	-1.143	-21.875	C.2	1	LIG1	0.000	
9	 C25	-6.279	-0.969	-18.712	C.2	1	LIG1	0.000	
10	 C26	-7.796	-1.200	-26.590	C.2	1	LIG1	0.000	
11	 C27	-6.628	-0.511	-26.843	C.2	1	LIG1	0.000	
12	 C28	-5.930	-0.865	-24.578	C.2	1	LIG1	0.000	
13	 C29	-2.568	1.810	-20.499	C.2	1	LIG1	0.000	
14	 C30	-3.036	1.130	-21.578	C.2	1	LIG1	0.000	
15	 C31	-8.020	-1.711	-25.355	C.2	1	LIG1	0.000	
16	 C32	-7.123	-1.574	-24.305	C.2	1	LIG1	0.000	
17	 C33	-5.697	-0.345	-25.833	C.2	1	LIG1	0.000	
18	 C34	-4.763	0.493	-17.824	C.2	1	LIG1	0.000	
19	 C35	-3.121	1.620	-19.253	C.2	1	LIG1	0.000	
20	 C36	-4.077	0.257	-21.446	C.2	1	LIG1	0.000	
21	 C37	-5.736	-0.845	-19.963	C.2	1	LIG1	0.000	
22	 C38	-4.167	0.731	-19.085	C.2	1	LIG1	0.000	
23	 C39	-4.651	0.052	-20.181	C.2	1	LIG1	0.000	
24	 N40	-6.219	-1.551	-21.080	N.pl3	1	LIG1	0.000	
25	 N41	-6.361	-3.106	-22.623	N.pl3	1	LIG1	0.000	
26	 N42	-3.787	1.352	-24.894	N.3	1	LIG1	0.000	
27	 C43	-9.688	-2.660	-23.872	C.3	1	LIG1	0.000	
28	 C44	-8.733	-2.872	-22.807	C.3	1	LIG1	0.000	
29	 C45	-7.374	-2.156	-22.946	C.3	1	LIG1	0.000	
30	 S46	-4.215	0.510	-26.151	S.O2	1	LIG1	0.000	
@<TRIPOS>BOND
1 5 18 ar
2 1 7 2
3 7 24 1
4 2 8 2
5 5 9 ar
6 10 15 ar
7 10 11 ar
8 13 14 ar
9 14 20 ar
10 6 15 1
11 15 16 ar
12 12 16 ar
13 16 29 1
14 11 17 ar
15 12 17 ar
16 18 22 ar
17 13 19 ar
18 20 23 ar
19 9 21 ar
20 21 23 ar
21 19 22 ar
22 22 23 ar
23 8 24 1
24 21 24 1
25 7 25 1
26 26 30 1
27 6 27 1
28 27 28 1
29 8 29 1
30 25 29 1
31 28 29 1
32 3 30 2
33 4 30 2
34 17 30 1
@<TRIPOS>SUBSTRUCTURE
1	LIG1	1	GROUP	1 C	LIG
