# created with PyMOL 3.1.3.1
@<TRIPOS>MOLECULE
predicted
41 46 1                 
SMALL
USER_CHARGES
@<TRIPOS>ATOM
1	CL32	-13.360	-3.188	-21.843	Cl	1	LIG1	0.000	
2	 O29	-10.831	2.404	-24.372	O.2	1	LIG1	0.000	
3	 O30	-5.963	2.291	-24.466	O.2	1	LIG1	0.000	
4	 O31	-8.695	0.679	-21.423	O.2	1	LIG1	0.000	
5	 N33	-7.606	-6.363	-27.875	N.2	1	LIG1	0.000	
6	 N34	-8.449	-5.355	-25.913	N.2	1	LIG1	0.000	
7	 N35	-6.261	-0.637	-17.955	N.2	1	LIG1	0.000	
8	 C36	-10.295	1.298	-24.210	C.2	1	LIG1	0.000	
9	 C37	-7.074	2.611	-24.177	C.2	1	LIG1	0.000	
10	 C38	-8.300	-0.359	-21.906	C.2	1	LIG1	0.000	
11	 C39	-8.513	-6.246	-26.867	C.2	1	LIG1	0.000	
12	 C40	-6.609	-5.467	-27.960	C.2	1	LIG1	0.000	
13	 C41	-6.960	-1.032	-19.007	C.2	1	LIG1	0.000	
14	 C42	-7.454	-4.442	-25.996	C.2	1	LIG1	0.000	
15	 C43	-6.490	-4.474	-26.986	C.2	1	LIG1	0.000	
16	 C44	-13.104	-0.793	-23.006	C.2	1	LIG1	0.000	
17	 C45	-12.408	0.241	-23.547	C.2	1	LIG1	0.000	
18	 C46	-11.037	-1.971	-22.544	C.2	1	LIG1	0.000	
19	 C47	-2.904	1.208	-20.861	C.2	1	LIG1	0.000	
20	 C48	-3.597	0.794	-21.978	C.2	1	LIG1	0.000	
21	 C49	-12.416	-1.900	-22.500	C.2	1	LIG1	0.000	
22	 C50	-11.035	0.185	-23.620	C.2	1	LIG1	0.000	
23	 C51	-10.340	-0.960	-23.171	C.2	1	LIG1	0.000	
24	 C52	-5.100	-0.013	-18.122	C.2	1	LIG1	0.000	
25	 C53	-3.402	0.941	-19.590	C.2	1	LIG1	0.000	
26	 C54	-4.778	0.134	-21.835	C.2	1	LIG1	0.000	
27	 C55	-6.524	-0.784	-20.319	C.2	1	LIG1	0.000	
28	 C56	-4.587	0.279	-19.413	C.2	1	LIG1	0.000	
29	 C57	-5.290	-0.124	-20.562	C.2	1	LIG1	0.000	
30	 N58	-7.346	3.214	-23.010	N.pl3	1	LIG1	0.000	
31	 N59	-7.380	-3.468	-25.064	N.pl3	1	LIG1	0.000	
32	 N60	-7.311	-1.134	-21.392	N.pl3	1	LIG1	0.000	
33	 N61	-8.948	1.153	-24.470	N.pl3	1	LIG1	0.000	
34	 C62	-9.651	-7.204	-26.812	C.3	1	LIG1	0.000	
35	 C63	-6.318	3.609	-22.115	C.3	1	LIG1	0.000	
36	 C64	-8.231	2.248	-25.059	C.3	1	LIG1	0.000	
37	 C65	-8.462	-3.126	-24.237	C.3	1	LIG1	0.000	
38	 C66	-7.193	-2.358	-22.089	C.3	1	LIG1	0.000	
39	 C67	-8.329	-0.131	-24.396	C.3	1	LIG1	0.000	
40	 C68	-8.216	-2.321	-23.151	C.3	1	LIG1	0.000	
41	 C69	-8.838	-0.972	-23.182	C.3	1	LIG1	0.000	
@<TRIPOS>BOND
1 5 11 ar
2 7 24 ar
3 2 8 2
4 3 9 2
5 9 36 1
6 4 10 2
7 10 32 1
8 6 11 ar
9 11 34 1
10 5 12 ar
11 7 13 ar
12 6 14 ar
13 14 15 ar
14 12 15 ar
15 16 17 ar
16 17 22 ar
17 18 21 ar
18 19 20 ar
19 20 26 ar
20 1 21 1
21 16 21 ar
22 8 22 1
23 18 23 ar
24 22 23 ar
25 24 28 ar
26 19 25 ar
27 26 29 ar
28 13 27 ar
29 27 29 ar
30 25 28 ar
31 28 29 ar
32 9 30 1
33 14 31 1
34 27 32 1
35 32 38 1
36 8 33 1
37 33 39 1
38 30 35 1
39 33 36 1
40 31 37 1
41 38 40 1
42 39 41 1
43 37 40 1
44 10 41 1
45 23 41 1
46 40 41 1
@<TRIPOS>SUBSTRUCTURE
1	LIG1	1	GROUP	1 C	LIG
