# created with PyMOL 3.1.3.1
@<TRIPOS>MOLECULE
predicted
26 29 1                 
SMALL
USER_CHARGES
@<TRIPOS>ATOM
1	 O19	-5.847	-3.169	-21.777	O.2	1	LIG1	0.000	
2	 O20	-8.671	0.300	-21.130	O.2	1	LIG1	0.000	
3	 O21	-11.816	-0.923	-25.393	O.2	1	LIG1	0.000	
4	 O22	-12.376	0.836	-23.884	O.2	1	LIG1	0.000	
5	 N23	-5.960	-0.491	-17.776	N.2	1	LIG1	0.000	
6	 C24	-6.798	-2.434	-21.919	C.2	1	LIG1	0.000	
7	 C25	-8.188	-0.740	-21.606	C.2	1	LIG1	0.000	
8	 C26	-6.654	-0.966	-18.789	C.2	1	LIG1	0.000	
9	 C27	-2.771	1.395	-20.782	C.2	1	LIG1	0.000	
10	 C28	-3.456	0.894	-21.868	C.2	1	LIG1	0.000	
11	 C29	-4.832	0.179	-17.999	C.2	1	LIG1	0.000	
12	 C30	-3.212	1.171	-19.504	C.2	1	LIG1	0.000	
13	 C31	-4.591	0.165	-21.680	C.2	1	LIG1	0.000	
14	 C32	-6.235	-0.849	-20.105	C.2	1	LIG1	0.000	
15	 C33	-4.362	0.433	-19.290	C.2	1	LIG1	0.000	
16	 C34	-5.073	-0.071	-20.381	C.2	1	LIG1	0.000	
17	 N35	-7.019	-1.327	-21.168	N.pl3	1	LIG1	0.000	
18	 N36	-7.774	-2.575	-22.833	N.pl3	1	LIG1	0.000	
19	 N37	-10.593	-0.629	-23.207	N.3	1	LIG1	0.000	
20	 C38	-7.845	-3.639	-23.830	C.3	1	LIG1	0.000	
21	 C39	-12.991	-2.942	-23.458	C.3	1	LIG1	0.000	
22	 C40	-9.136	-0.752	-23.887	C.3	1	LIG1	0.000	
23	 C41	-10.130	-1.960	-22.492	C.3	1	LIG1	0.000	
24	 C42	-8.719	-1.550	-22.701	C.3	1	LIG1	0.000	
25	 C43	-13.089	-1.530	-23.204	C.3	1	LIG1	0.000	
26	 S44	-11.967	-0.520	-24.000	S.O2	1	LIG1	0.000	
@<TRIPOS>BOND
1 5 11 ar
2 1 6 2
3 6 18 1
4 2 7 2
5 7 17 1
6 5 8 ar
7 9 10 ar
8 10 13 ar
9 11 15 ar
10 9 12 ar
11 13 16 ar
12 8 14 ar
13 14 16 ar
14 12 15 ar
15 15 16 ar
16 6 17 1
17 14 17 1
18 18 20 1
19 19 22 1
20 19 23 1
21 21 25 1
22 22 24 1
23 7 24 1
24 18 24 1
25 23 24 1
26 25 26 1
27 3 26 2
28 4 26 2
29 19 26 1
@<TRIPOS>SUBSTRUCTURE
1	LIG1	1	GROUP	1 C	LIG
