# created with PyMOL 3.1.3.1
@<TRIPOS>MOLECULE
predicted
34 39 1                 
SMALL
USER_CHARGES
@<TRIPOS>ATOM
1	 O24	-10.861	2.502	-24.200	O.2	1	LIG1	0.000	
2	 O25	-8.796	0.696	-21.343	O.2	1	LIG1	0.000	
3	 N27	-6.280	-0.428	-17.897	N.2	1	LIG1	0.000	
4	 C28	-10.344	1.364	-24.050	C.2	1	LIG1	0.000	
5	 C29	-8.393	-0.347	-21.825	C.2	1	LIG1	0.000	
6	 C30	-6.988	-0.862	-18.932	C.2	1	LIG1	0.000	
7	 C31	-13.238	-0.675	-22.864	C.2	1	LIG1	0.000	
8	 C32	-12.505	0.364	-23.378	C.2	1	LIG1	0.000	
9	 C33	-11.200	-1.952	-22.461	C.2	1	LIG1	0.000	
10	 C34	-2.927	1.313	-20.898	C.2	1	LIG1	0.000	
11	 C35	-3.627	0.840	-21.991	C.2	1	LIG1	0.000	
12	 C36	-12.596	-1.837	-22.401	C.2	1	LIG1	0.000	
13	 C37	-11.118	0.253	-23.469	C.2	1	LIG1	0.000	
14	 C38	-10.459	-0.932	-23.072	C.2	1	LIG1	0.000	
15	 C39	-5.112	0.209	-18.100	C.2	1	LIG1	0.000	
16	 C40	-3.412	1.104	-19.612	C.2	1	LIG1	0.000	
17	 C41	-4.808	0.196	-21.811	C.2	1	LIG1	0.000	
18	 C42	-6.566	-0.680	-20.253	C.2	1	LIG1	0.000	
19	 C43	-7.334	2.880	-23.905	C.2	1	LIG1	0.000	
20	 C44	-7.742	3.330	-22.673	C.2	1	LIG1	0.000	
21	 C45	-5.636	3.688	-22.835	C.2	1	LIG1	0.000	
22	 C46	-4.609	0.444	-19.398	C.2	1	LIG1	0.000	
23	 C47	-5.332	-0.009	-20.518	C.2	1	LIG1	0.000	
24	 N48	-7.364	-1.078	-21.319	N.pl3	1	LIG1	0.000	
25	 N49	-9.003	1.168	-24.358	N.pl3	1	LIG1	0.000	
26	 N50	-6.058	3.132	-24.020	N.pl3	1	LIG1	0.000	
27	 N51	-6.674	3.806	-21.997	N.2	1	LIG1	0.000	
28	 C52	-8.237	2.237	-24.966	C.3	1	LIG1	0.000	
29	 C53	-8.354	-3.161	-24.244	C.3	1	LIG1	0.000	
30	 C54	-7.235	-2.330	-22.023	C.3	1	LIG1	0.000	
31	 C55	-8.407	-0.177	-24.308	C.3	1	LIG1	0.000	
32	 C56	-8.377	-2.364	-23.002	C.3	1	LIG1	0.000	
33	 C57	-8.952	-0.977	-23.091	C.3	1	LIG1	0.000	
34	 F26	-13.328	-2.820	-21.905	 F	1	LIG1	0.000	
@<TRIPOS>BOND
1 3 15 ar
2 1 4 2
3 4 13 1
4 2 5 2
5 5 33 1
6 3 6 ar
7 7 12 ar
8 7 8 ar
9 9 14 ar
10 10 11 ar
11 11 17 ar
12 9 12 ar
13 12 34 1
14 8 13 ar
15 13 14 ar
16 15 22 ar
17 10 16 ar
18 17 23 ar
19 6 18 ar
20 18 23 ar
21 19 20 ar
22 19 26 ar
23 20 27 ar
24 21 26 ar
25 16 22 ar
26 22 23 ar
27 5 24 1
28 18 24 1
29 4 25 1
30 25 28 1
31 21 27 ar
32 19 28 1
33 29 32 1
34 24 30 1
35 25 31 1
36 30 32 1
37 32 33 1
38 14 33 1
39 31 33 1
@<TRIPOS>SUBSTRUCTURE
1	LIG1	1	GROUP	1 C	LIG
