# created with PyMOL 3.1.3.1
@<TRIPOS>MOLECULE
predicted
35 40 1                 
SMALL
USER_CHARGES
@<TRIPOS>ATOM
1	 O23	-10.662	2.309	-24.668	O.2	1	LIG1	0.000	
2	 O24	-8.619	0.684	-21.581	O.2	1	LIG1	0.000	
3	 N26	-8.088	3.981	-23.758	N.2	1	LIG1	0.000	
4	 N27	-6.196	2.576	-23.850	N.2	1	LIG1	0.000	
5	 N28	-6.198	-0.455	-18.039	N.2	1	LIG1	0.000	
6	 C29	-10.147	1.208	-24.418	C.2	1	LIG1	0.000	
7	 C30	-8.202	-0.371	-22.016	C.2	1	LIG1	0.000	
8	 C31	-7.400	2.929	-24.264	C.2	1	LIG1	0.000	
9	 C32	-7.492	4.742	-22.831	C.2	1	LIG1	0.000	
10	 C33	-5.581	3.327	-22.910	C.2	1	LIG1	0.000	
11	 C34	-6.867	-0.879	-19.085	C.2	1	LIG1	0.000	
12	 C35	-6.194	4.446	-22.388	C.2	1	LIG1	0.000	
13	 C36	-13.022	-0.766	-23.127	C.2	1	LIG1	0.000	
14	 C37	-12.303	0.239	-23.699	C.2	1	LIG1	0.000	
15	 C38	-10.989	-1.990	-22.620	C.2	1	LIG1	0.000	
16	 C39	-2.761	1.303	-20.924	C.2	1	LIG1	0.000	
17	 C40	-3.419	0.839	-22.040	C.2	1	LIG1	0.000	
18	 C41	-12.379	-1.888	-22.580	C.2	1	LIG1	0.000	
19	 C42	-10.913	0.137	-23.763	C.2	1	LIG1	0.000	
20	 C43	-10.240	-1.016	-23.272	C.2	1	LIG1	0.000	
21	 C44	-5.026	0.190	-18.207	C.2	1	LIG1	0.000	
22	 C45	-3.284	1.088	-19.657	C.2	1	LIG1	0.000	
23	 C46	-4.607	0.187	-21.900	C.2	1	LIG1	0.000	
24	 C47	-6.418	-0.677	-20.398	C.2	1	LIG1	0.000	
25	 C48	-4.488	0.435	-19.485	C.2	1	LIG1	0.000	
26	 C49	-5.172	-0.017	-20.623	C.2	1	LIG1	0.000	
27	 N50	-7.184	-1.085	-21.480	N.pl3	1	LIG1	0.000	
28	 N51	-8.806	1.015	-24.677	N.pl3	1	LIG1	0.000	
29	 C52	-8.062	2.053	-25.357	C.3	1	LIG1	0.000	
30	 C53	-8.136	-3.287	-24.298	C.3	1	LIG1	0.000	
31	 C54	-7.017	-2.347	-22.137	C.3	1	LIG1	0.000	
32	 C55	-8.177	-0.303	-24.506	C.3	1	LIG1	0.000	
33	 C56	-8.156	-2.426	-23.108	C.3	1	LIG1	0.000	
34	 C57	-8.748	-1.052	-23.269	C.3	1	LIG1	0.000	
35	 F25	-13.112	-2.841	-22.045	 F	1	LIG1	0.000	
@<TRIPOS>BOND
1 3 9 ar
2 5 21 ar
3 1 6 2
4 6 19 1
5 2 7 2
6 7 34 1
7 3 8 ar
8 4 8 ar
9 9 12 ar
10 4 10 ar
11 5 11 ar
12 10 12 ar
13 13 18 ar
14 13 14 ar
15 15 20 ar
16 16 17 ar
17 17 23 ar
18 15 18 ar
19 18 35 1
20 14 19 ar
21 19 20 ar
22 21 25 ar
23 16 22 ar
24 23 26 ar
25 11 24 ar
26 24 26 ar
27 22 25 ar
28 25 26 ar
29 7 27 1
30 24 27 1
31 6 28 1
32 28 29 1
33 8 29 1
34 30 33 1
35 27 31 1
36 28 32 1
37 31 33 1
38 33 34 1
39 20 34 1
40 32 34 1
@<TRIPOS>SUBSTRUCTURE
1	LIG1	1	GROUP	1 C	LIG
