# created with PyMOL 3.1.3.1
@<TRIPOS>MOLECULE
predicted
28 31 1                 
SMALL
USER_CHARGES
@<TRIPOS>ATOM
1	 O27	-8.408	0.302	-21.383	O.2	1	LIG1	0.000	
2	 N28	-6.024	-0.591	-17.907	N.2	1	LIG1	0.000	
3	 O29	-7.804	-0.886	-25.840	O.3	1	LIG1	0.000	
4	 C30	-8.239	-0.783	-21.848	C.2	1	LIG1	0.000	
5	 C31	-6.748	-1.188	-18.881	C.2	1	LIG1	0.000	
6	 C32	-7.009	2.630	-25.518	C.2	1	LIG1	0.000	
7	 C33	-7.930	3.039	-24.540	C.2	1	LIG1	0.000	
8	 C34	-6.967	1.340	-25.926	C.2	1	LIG1	0.000	
9	 C35	-8.785	2.117	-23.986	C.2	1	LIG1	0.000	
10	 C36	-2.994	1.121	-21.152	C.2	1	LIG1	0.000	
11	 C37	-3.716	0.533	-22.167	C.2	1	LIG1	0.000	
12	 C38	-7.849	0.414	-25.364	C.2	1	LIG1	0.000	
13	 C39	-8.821	0.810	-24.407	C.2	1	LIG1	0.000	
14	 C40	-4.929	0.073	-18.182	C.2	1	LIG1	0.000	
15	 C41	-3.375	0.982	-19.825	C.2	1	LIG1	0.000	
16	 C42	-4.843	-0.198	-21.900	C.2	1	LIG1	0.000	
17	 C43	-6.413	-1.114	-20.227	C.2	1	LIG1	0.000	
18	 C44	-4.510	0.234	-19.509	C.2	1	LIG1	0.000	
19	 C45	-5.255	-0.363	-20.558	C.2	1	LIG1	0.000	
20	 N46	-8.976	-1.134	-22.995	N.pl3	1	LIG1	0.000	
21	 C47	-6.726	-1.263	-26.707	C.3	1	LIG1	0.000	
22	 C48	-7.288	-1.762	-21.282	C.3	1	LIG1	0.000	
23	 C49	-9.114	-2.483	-23.472	C.3	1	LIG1	0.000	
24	 C50	-12.898	-2.186	-24.000	C.3	1	LIG1	0.000	
25	 C51	-10.581	-2.880	-23.464	C.3	1	LIG1	0.000	
26	 C52	-11.151	-0.401	-23.699	C.3	1	LIG1	0.000	
27	 C53	-11.460	-1.848	-24.144	C.3	1	LIG1	0.000	
28	 C54	-9.737	-0.149	-23.702	C.3	1	LIG1	0.000	
@<TRIPOS>BOND
1 2 14 ar
2 3 12 1
3 1 4 2
4 4 22 1
5 2 5 ar
6 6 7 ar
7 7 9 ar
8 6 8 ar
9 9 13 ar
10 10 11 ar
11 11 16 ar
12 8 12 ar
13 12 13 ar
14 13 28 1
15 14 18 ar
16 10 15 ar
17 16 19 ar
18 5 17 ar
19 17 19 ar
20 15 18 ar
21 18 19 ar
22 4 20 1
23 3 21 1
24 17 22 1
25 20 23 1
26 23 25 1
27 26 27 1
28 24 27 1
29 25 27 1
30 20 28 1
31 26 28 1
@<TRIPOS>SUBSTRUCTURE
1	LIG1	1	GROUP	1 C	LIG
