# created with PyMOL 3.1.3.1
@<TRIPOS>MOLECULE
predicted
26 29 1                 
SMALL
USER_CHARGES
@<TRIPOS>ATOM
1	 O25	-7.967	0.019	-21.374	O.2	1	LIG1	0.000	
2	 N26	-5.987	-0.545	-17.560	N.2	1	LIG1	0.000	
3	 C27	-7.498	-1.005	-21.806	C.2	1	LIG1	0.000	
4	 C28	-6.503	-1.215	-18.578	C.2	1	LIG1	0.000	
5	 C29	-13.037	-1.377	-22.583	C.2	1	LIG1	0.000	
6	 C30	-12.648	-0.208	-23.243	C.2	1	LIG1	0.000	
7	 C31	-12.245	-2.513	-22.604	C.2	1	LIG1	0.000	
8	 C32	-11.486	-0.194	-23.932	C.2	1	LIG1	0.000	
9	 C33	-11.069	-2.473	-23.312	C.2	1	LIG1	0.000	
10	 C34	-2.758	1.377	-20.443	C.2	1	LIG1	0.000	
11	 C35	-3.272	0.709	-21.491	C.2	1	LIG1	0.000	
12	 C36	-10.702	-1.318	-23.957	C.2	1	LIG1	0.000	
13	 C37	-4.961	0.210	-17.720	C.2	1	LIG1	0.000	
14	 C38	-3.298	1.233	-19.193	C.2	1	LIG1	0.000	
15	 C39	-4.343	-0.091	-21.342	C.2	1	LIG1	0.000	
16	 C40	-6.009	-1.118	-19.853	C.2	1	LIG1	0.000	
17	 C41	-4.373	0.406	-18.980	C.2	1	LIG1	0.000	
18	 C42	-4.902	-0.282	-20.089	C.2	1	LIG1	0.000	
19	 N43	-7.653	-1.396	-23.100	N.pl3	1	LIG1	0.000	
20	 C44	-6.674	-1.889	-20.935	C.3	1	LIG1	0.000	
21	 C45	-7.100	-2.633	-23.636	C.3	1	LIG1	0.000	
22	 C46	-6.000	-2.263	-24.624	C.3	1	LIG1	0.000	
23	 C47	-6.639	-1.329	-25.747	C.3	1	LIG1	0.000	
24	 C48	-9.450	-1.271	-24.762	C.3	1	LIG1	0.000	
25	 C49	-7.287	-0.093	-25.070	C.3	1	LIG1	0.000	
26	 C50	-8.345	-0.541	-24.069	C.3	1	LIG1	0.000	
@<TRIPOS>BOND
1 1 3 2
2 2 13 ar
3 3 19 1
4 3 20 1
5 2 4 ar
6 5 7 ar
7 5 6 ar
8 7 9 ar
9 6 8 ar
10 10 11 ar
11 11 15 ar
12 8 12 ar
13 9 12 ar
14 13 17 ar
15 10 14 ar
16 15 18 ar
17 4 16 ar
18 16 18 ar
19 14 17 ar
20 17 18 ar
21 19 21 1
22 19 26 1
23 16 20 1
24 21 22 1
25 22 23 1
26 23 25 1
27 12 24 1
28 25 26 1
29 24 26 1
@<TRIPOS>SUBSTRUCTURE
1	LIG1	1	GROUP	1 C	LIG
