# created with PyMOL 3.1.3.1
@<TRIPOS>MOLECULE
predicted
34 39 1                 
SMALL
USER_CHARGES
@<TRIPOS>ATOM
1	 O22	-10.727	2.108	-24.487	O.2	1	LIG1	0.000	
2	 O23	-8.648	0.485	-21.491	O.2	1	LIG1	0.000	
3	 N25	-6.183	-0.598	-17.968	N.2	1	LIG1	0.000	
4	 N26	-7.627	2.782	-22.869	N.2	1	LIG1	0.000	
5	 N27	-6.315	3.359	-24.387	N.2	1	LIG1	0.000	
6	 C28	-10.209	0.998	-24.272	C.2	1	LIG1	0.000	
7	 C29	-8.242	-0.568	-21.929	C.2	1	LIG1	0.000	
8	 C30	-7.367	2.664	-24.161	C.2	1	LIG1	0.000	
9	 C31	-6.860	-1.048	-19.000	C.2	1	LIG1	0.000	
10	 C32	-13.064	-0.979	-22.964	C.2	1	LIG1	0.000	
11	 C33	-12.351	0.022	-23.551	C.2	1	LIG1	0.000	
12	 C34	-11.019	-2.195	-22.474	C.2	1	LIG1	0.000	
13	 C35	-2.912	1.354	-20.903	C.2	1	LIG1	0.000	
14	 C36	-3.586	0.881	-22.012	C.2	1	LIG1	0.000	
15	 C37	-12.414	-2.090	-22.425	C.2	1	LIG1	0.000	
16	 C38	-10.961	-0.075	-23.624	C.2	1	LIG1	0.000	
17	 C39	-10.290	-1.216	-23.144	C.2	1	LIG1	0.000	
18	 C40	-5.043	0.081	-18.158	C.2	1	LIG1	0.000	
19	 C41	-3.384	1.087	-19.625	C.2	1	LIG1	0.000	
20	 C42	-4.736	0.169	-21.848	C.2	1	LIG1	0.000	
21	 C43	-6.448	-0.827	-20.328	C.2	1	LIG1	0.000	
22	 C44	-6.688	3.534	-22.289	C.2	1	LIG1	0.000	
23	 C45	-4.547	0.368	-19.437	C.2	1	LIG1	0.000	
24	 C46	-5.246	-0.098	-20.567	C.2	1	LIG1	0.000	
25	 N47	-7.218	-1.261	-21.388	N.pl3	1	LIG1	0.000	
26	 N48	-8.872	0.804	-24.551	N.pl3	1	LIG1	0.000	
27	 N49	-5.890	3.891	-23.183	N.2	1	LIG1	0.000	
28	 C50	-8.134	1.832	-25.218	C.3	1	LIG1	0.000	
29	 C51	-8.209	-3.487	-24.195	C.3	1	LIG1	0.000	
30	 C52	-7.066	-2.541	-22.040	C.3	1	LIG1	0.000	
31	 C53	-8.250	-0.521	-24.417	C.3	1	LIG1	0.000	
32	 C54	-8.202	-2.630	-23.010	C.3	1	LIG1	0.000	
33	 C55	-8.791	-1.256	-23.161	C.3	1	LIG1	0.000	
34	 F24	-13.140	-3.047	-21.865	 F	1	LIG1	0.000	
@<TRIPOS>BOND
1 3 18 ar
2 4 22 ar
3 1 6 2
4 6 16 1
5 2 7 2
6 7 33 1
7 4 8 ar
8 5 8 ar
9 3 9 ar
10 10 15 ar
11 10 11 ar
12 12 17 ar
13 13 14 ar
14 14 20 ar
15 12 15 ar
16 15 34 1
17 11 16 ar
18 16 17 ar
19 18 23 ar
20 13 19 ar
21 20 24 ar
22 9 21 ar
23 21 24 ar
24 22 27 ar
25 19 23 ar
26 23 24 ar
27 7 25 1
28 21 25 1
29 6 26 1
30 26 28 1
31 5 27 ar
32 8 28 1
33 29 32 1
34 25 30 1
35 26 31 1
36 30 32 1
37 32 33 1
38 17 33 1
39 31 33 1
@<TRIPOS>SUBSTRUCTURE
1	LIG1	1	GROUP	1 C	LIG
