# created with PyMOL 3.1.3.1
@<TRIPOS>MOLECULE
predicted
35 39 1                 
SMALL
USER_CHARGES
@<TRIPOS>ATOM
1	CL29	-13.163	-3.205	-21.670	Cl	1	LIG1	0.000	
2	 O26	-10.654	2.381	-24.137	O.2	1	LIG1	0.000	
3	 O27	-5.811	2.157	-24.207	O.2	1	LIG1	0.000	
4	 O28	-8.523	0.640	-21.253	O.2	1	LIG1	0.000	
5	 N30	-6.112	-0.621	-17.782	N.2	1	LIG1	0.000	
6	 O31	-7.556	-4.054	-24.531	O.3	1	LIG1	0.000	
7	 C32	-10.116	1.265	-23.994	C.2	1	LIG1	0.000	
8	 C33	-6.894	2.562	-23.964	C.2	1	LIG1	0.000	
9	 C34	-8.126	-0.402	-21.739	C.2	1	LIG1	0.000	
10	 C35	-6.793	-1.017	-18.837	C.2	1	LIG1	0.000	
11	 C36	-12.939	-0.835	-22.803	C.2	1	LIG1	0.000	
12	 C37	-12.244	0.204	-23.339	C.2	1	LIG1	0.000	
13	 C38	-10.869	-2.024	-22.357	C.2	1	LIG1	0.000	
14	 C39	-2.729	1.201	-20.666	C.2	1	LIG1	0.000	
15	 C40	-3.414	0.773	-21.786	C.2	1	LIG1	0.000	
16	 C41	-12.251	-1.954	-22.291	C.2	1	LIG1	0.000	
17	 C42	-10.861	0.145	-23.410	C.2	1	LIG1	0.000	
18	 C43	-10.162	-1.007	-22.988	C.2	1	LIG1	0.000	
19	 C44	-4.945	0.012	-17.949	C.2	1	LIG1	0.000	
20	 C45	-3.237	0.952	-19.397	C.2	1	LIG1	0.000	
21	 C46	-4.586	0.117	-21.649	C.2	1	LIG1	0.000	
22	 C47	-6.356	-0.799	-20.151	C.2	1	LIG1	0.000	
23	 C48	-4.422	0.286	-19.227	C.2	1	LIG1	0.000	
24	 C49	-5.122	-0.129	-20.372	C.2	1	LIG1	0.000	
25	 N50	-7.171	3.275	-22.864	N.pl3	1	LIG1	0.000	
26	 N51	-7.122	-1.164	-21.223	N.pl3	1	LIG1	0.000	
27	 N52	-8.775	1.111	-24.284	N.pl3	1	LIG1	0.000	
28	 C53	-7.914	-4.705	-25.757	C.3	1	LIG1	0.000	
29	 C54	-6.134	3.670	-21.966	C.3	1	LIG1	0.000	
30	 C55	-8.047	2.210	-24.854	C.3	1	LIG1	0.000	
31	 C56	-8.307	-3.073	-24.208	C.3	1	LIG1	0.000	
32	 C57	-6.980	-2.378	-21.961	C.3	1	LIG1	0.000	
33	 C58	-8.153	-0.202	-24.239	C.3	1	LIG1	0.000	
34	 C59	-8.065	-2.386	-22.955	C.3	1	LIG1	0.000	
35	 C60	-8.670	-1.014	-23.009	C.3	1	LIG1	0.000	
@<TRIPOS>BOND
1 5 19 ar
2 6 28 1
3 2 7 2
4 3 8 2
5 8 30 1
6 4 9 2
7 9 26 1
8 5 10 ar
9 11 12 ar
10 12 17 ar
11 13 16 ar
12 14 15 ar
13 15 21 ar
14 1 16 1
15 11 16 ar
16 7 17 1
17 13 18 ar
18 17 18 ar
19 19 23 ar
20 14 20 ar
21 21 24 ar
22 10 22 ar
23 22 24 ar
24 20 23 ar
25 23 24 ar
26 8 25 1
27 22 26 1
28 26 32 1
29 7 27 1
30 27 33 1
31 25 29 1
32 27 30 1
33 6 31 1
34 32 34 1
35 33 35 1
36 31 34 1
37 9 35 1
38 18 35 1
39 34 35 1
@<TRIPOS>SUBSTRUCTURE
1	LIG1	1	GROUP	1 C	LIG
