# created with PyMOL 3.1.3.1
@<TRIPOS>MOLECULE
predicted
38 42 1                 
SMALL
USER_CHARGES
@<TRIPOS>ATOM
1	 O27	-10.730	2.201	-24.198	O.2	1	LIG1	0.000	
2	 O28	-8.643	4.000	-24.526	O.2	1	LIG1	0.000	
3	 O29	-8.674	0.493	-21.391	O.2	1	LIG1	0.000	
4	 O30	-8.021	-5.791	-23.312	O.2	1	LIG1	0.000	
5	 O31	-6.059	-4.678	-24.166	O.2	1	LIG1	0.000	
6	 N33	-6.180	-0.689	-17.915	N.2	1	LIG1	0.000	
7	 C34	-10.205	1.086	-24.048	C.2	1	LIG1	0.000	
8	 C35	-7.963	3.144	-24.069	C.2	1	LIG1	0.000	
9	 C36	-8.276	-0.571	-21.854	C.2	1	LIG1	0.000	
10	 C37	-6.887	-1.123	-18.962	C.2	1	LIG1	0.000	
11	 C38	-13.116	-0.965	-22.944	C.2	1	LIG1	0.000	
12	 C39	-12.384	0.081	-23.423	C.2	1	LIG1	0.000	
13	 C40	-11.084	-2.236	-22.546	C.2	1	LIG1	0.000	
14	 C41	-2.916	1.236	-20.895	C.2	1	LIG1	0.000	
15	 C42	-3.627	0.786	-22.007	C.2	1	LIG1	0.000	
16	 C43	-12.478	-2.129	-22.495	C.2	1	LIG1	0.000	
17	 C44	-10.995	-0.014	-23.499	C.2	1	LIG1	0.000	
18	 C45	-10.335	-1.197	-23.108	C.2	1	LIG1	0.000	
19	 C46	-5.034	-0.027	-18.117	C.2	1	LIG1	0.000	
20	 C47	-3.380	0.965	-19.608	C.2	1	LIG1	0.000	
21	 C48	-4.779	0.082	-21.841	C.2	1	LIG1	0.000	
22	 C49	-6.466	-0.904	-20.285	C.2	1	LIG1	0.000	
23	 C50	-4.547	0.257	-19.414	C.2	1	LIG1	0.000	
24	 C51	-5.257	-0.189	-20.541	C.2	1	LIG1	0.000	
25	 N52	-7.285	3.254	-22.922	N.pl3	1	LIG1	0.000	
26	 N53	-7.262	-1.321	-21.356	N.pl3	1	LIG1	0.000	
27	 N54	-8.822	0.889	-24.319	N.pl3	1	LIG1	0.000	
28	 N55	-7.737	-5.593	-25.879	N.3	1	LIG1	0.000	
29	 C56	-7.213	4.477	-22.208	C.3	1	LIG1	0.000	
30	 C57	-9.033	-6.093	-26.172	C.3	1	LIG1	0.000	
31	 C58	-7.906	1.886	-24.797	C.3	1	LIG1	0.000	
32	 C59	-7.140	-2.554	-22.045	C.3	1	LIG1	0.000	
33	 C60	-8.276	-0.406	-24.327	C.3	1	LIG1	0.000	
34	 C61	-8.318	-3.342	-24.342	C.3	1	LIG1	0.000	
35	 C62	-8.216	-2.593	-23.069	C.3	1	LIG1	0.000	
36	 C63	-8.823	-1.226	-23.120	C.3	1	LIG1	0.000	
37	 S64	-7.497	-4.903	-24.382	S.O2	1	LIG1	0.000	
38	 F32	-13.225	-3.121	-22.037	 F	1	LIG1	0.000	
@<TRIPOS>BOND
1 6 19 ar
2 1 7 2
3 2 8 2
4 8 31 1
5 3 9 2
6 9 26 1
7 6 10 ar
8 11 12 ar
9 12 17 ar
10 13 16 ar
11 14 15 ar
12 15 21 ar
13 11 16 ar
14 16 38 1
15 7 17 1
16 13 18 ar
17 17 18 ar
18 19 23 ar
19 14 20 ar
20 21 24 ar
21 10 22 ar
22 22 24 ar
23 20 23 ar
24 23 24 ar
25 8 25 1
26 22 26 1
27 26 32 1
28 7 27 1
29 27 33 1
30 28 30 1
31 25 29 1
32 27 31 1
33 32 35 1
34 33 36 1
35 34 37 1
36 34 35 1
37 9 36 1
38 18 36 1
39 35 36 1
40 4 37 2
41 5 37 2
42 28 37 1
@<TRIPOS>SUBSTRUCTURE
1	LIG1	1	GROUP	1 C	LIG
