# created with PyMOL 3.1.3.1
@<TRIPOS>MOLECULE
predicted
31 35 1                 
SMALL
USER_CHARGES
@<TRIPOS>ATOM
1	 N20	-7.067	2.809	-22.810	N.3	1	LIG1	0.000	
2	 O21	-10.849	2.171	-24.319	O.2	1	LIG1	0.000	
3	 O22	-8.636	0.490	-21.417	O.2	1	LIG1	0.000	
4	 C24	-7.968	3.093	-23.802	C.3	1	LIG1	0.000	
5	 N25	-6.169	-0.656	-17.951	N.2	1	LIG1	0.000	
6	 C26	-10.296	1.064	-24.131	C.2	1	LIG1	0.000	
7	 C27	-8.257	-0.562	-21.889	C.2	1	LIG1	0.000	
8	 C28	-6.874	-1.092	-18.981	C.2	1	LIG1	0.000	
9	 C29	-13.096	-1.024	-22.912	C.2	1	LIG1	0.000	
10	 C30	-12.413	0.013	-23.450	C.2	1	LIG1	0.000	
11	 C31	-11.028	-2.213	-22.466	C.2	1	LIG1	0.000	
12	 C32	-2.891	1.222	-20.964	C.2	1	LIG1	0.000	
13	 C33	-3.594	0.754	-22.064	C.2	1	LIG1	0.000	
14	 C34	-12.422	-2.143	-22.413	C.2	1	LIG1	0.000	
15	 C35	-11.023	-0.054	-23.535	C.2	1	LIG1	0.000	
16	 C36	-10.325	-1.186	-23.101	C.2	1	LIG1	0.000	
17	 C37	-5.009	0.005	-18.154	C.2	1	LIG1	0.000	
18	 C38	-3.353	0.981	-19.672	C.2	1	LIG1	0.000	
19	 C39	-4.754	0.062	-21.875	C.2	1	LIG1	0.000	
20	 C40	-6.453	-0.895	-20.309	C.2	1	LIG1	0.000	
21	 C41	-4.521	0.279	-19.451	C.2	1	LIG1	0.000	
22	 C42	-5.242	-0.185	-20.572	C.2	1	LIG1	0.000	
23	 N43	-7.253	-1.295	-21.372	N.pl3	1	LIG1	0.000	
24	 N44	-8.928	0.931	-24.383	N.pl3	1	LIG1	0.000	
25	 C45	-8.172	2.039	-24.917	C.3	1	LIG1	0.000	
26	 C46	-8.161	-3.340	-24.311	C.3	1	LIG1	0.000	
27	 C47	-7.104	-2.534	-22.072	C.3	1	LIG1	0.000	
28	 C48	-8.309	-0.378	-24.353	C.3	1	LIG1	0.000	
29	 C49	-8.213	-2.559	-23.085	C.3	1	LIG1	0.000	
30	 C50	-8.822	-1.204	-23.148	C.3	1	LIG1	0.000	
31	 F23	-13.131	-3.137	-21.874	 F	1	LIG1	0.000	
@<TRIPOS>BOND
1 1 4 1
2 5 17 ar
3 2 6 2
4 6 15 1
5 3 7 2
6 7 30 1
7 5 8 ar
8 9 14 ar
9 9 10 ar
10 11 16 ar
11 12 13 ar
12 13 19 ar
13 11 14 ar
14 14 31 1
15 10 15 ar
16 15 16 ar
17 17 21 ar
18 12 18 ar
19 19 22 ar
20 8 20 ar
21 20 22 ar
22 18 21 ar
23 21 22 ar
24 7 23 1
25 20 23 1
26 6 24 1
27 24 25 1
28 4 25 1
29 26 29 1
30 23 27 1
31 24 28 1
32 27 29 1
33 29 30 1
34 16 30 1
35 28 30 1
@<TRIPOS>SUBSTRUCTURE
1	LIG1	1	GROUP	1 C	LIG
