# created with PyMOL 3.1.3.1
@<TRIPOS>MOLECULE
predicted
31 35 1                 
SMALL
USER_CHARGES
@<TRIPOS>ATOM
1	 N20	-7.255	3.256	-22.609	N.2	1	LIG1	0.000	
2	 O21	-10.526	2.418	-24.216	O.2	1	LIG1	0.000	
3	 O22	-8.481	0.595	-21.352	O.2	1	LIG1	0.000	
4	 C24	-6.947	2.743	-23.765	C.2	1	LIG1	0.000	
5	 N25	-6.084	-0.611	-17.882	N.2	1	LIG1	0.000	
6	 C26	-10.035	1.287	-24.059	C.2	1	LIG1	0.000	
7	 C27	-8.117	-0.458	-21.836	C.2	1	LIG1	0.000	
8	 C28	-6.777	-1.034	-18.922	C.2	1	LIG1	0.000	
9	 C29	-12.929	-0.772	-22.993	C.2	1	LIG1	0.000	
10	 C30	-12.195	0.265	-23.468	C.2	1	LIG1	0.000	
11	 C31	-10.912	-2.042	-22.531	C.2	1	LIG1	0.000	
12	 C32	-2.773	1.256	-20.846	C.2	1	LIG1	0.000	
13	 C33	-3.461	0.801	-21.950	C.2	1	LIG1	0.000	
14	 C34	-12.306	-1.927	-22.517	C.2	1	LIG1	0.000	
15	 C35	-10.814	0.163	-23.519	C.2	1	LIG1	0.000	
16	 C36	-10.162	-1.013	-23.112	C.2	1	LIG1	0.000	
17	 C37	-4.925	0.044	-18.067	C.2	1	LIG1	0.000	
18	 C38	-3.250	1.016	-19.565	C.2	1	LIG1	0.000	
19	 C39	-4.623	0.114	-21.779	C.2	1	LIG1	0.000	
20	 C40	-6.349	-0.835	-20.237	C.2	1	LIG1	0.000	
21	 C41	-4.423	0.323	-19.357	C.2	1	LIG1	0.000	
22	 C42	-5.131	-0.129	-20.487	C.2	1	LIG1	0.000	
23	 N43	-7.136	-1.216	-21.309	N.pl3	1	LIG1	0.000	
24	 N44	-8.673	1.110	-24.298	N.pl3	1	LIG1	0.000	
25	 C45	-7.880	2.200	-24.819	C.3	1	LIG1	0.000	
26	 C46	-8.032	-3.210	-24.288	C.3	1	LIG1	0.000	
27	 C47	-6.999	-2.454	-22.016	C.3	1	LIG1	0.000	
28	 C48	-8.098	-0.233	-24.293	C.3	1	LIG1	0.000	
29	 C49	-8.085	-2.444	-23.056	C.3	1	LIG1	0.000	
30	 C50	-8.662	-1.063	-23.116	C.3	1	LIG1	0.000	
31	 F23	-13.060	-2.919	-22.047	 F	1	LIG1	0.000	
@<TRIPOS>BOND
1 1 4 2
2 5 17 ar
3 2 6 2
4 6 15 1
5 3 7 2
6 7 30 1
7 5 8 ar
8 9 14 ar
9 9 10 ar
10 11 16 ar
11 12 13 ar
12 13 19 ar
13 11 14 ar
14 14 31 1
15 10 15 ar
16 15 16 ar
17 17 21 ar
18 12 18 ar
19 19 22 ar
20 8 20 ar
21 20 22 ar
22 18 21 ar
23 21 22 ar
24 7 23 1
25 20 23 1
26 6 24 1
27 24 25 1
28 4 25 1
29 26 29 1
30 23 27 1
31 24 28 1
32 27 29 1
33 29 30 1
34 16 30 1
35 28 30 1
@<TRIPOS>SUBSTRUCTURE
1	LIG1	1	GROUP	1 C	LIG
