# created with PyMOL 3.1.3.1
@<TRIPOS>MOLECULE
predicted
32 36 1                 
SMALL
USER_CHARGES
@<TRIPOS>ATOM
1	 O27	-11.076	2.422	-24.228	O.2	1	LIG1	0.000	
2	 O28	-8.856	0.652	-21.430	O.2	1	LIG1	0.000	
3	 N30	-6.267	-0.586	-18.028	N.2	1	LIG1	0.000	
4	 C31	-10.519	1.309	-24.103	C.2	1	LIG1	0.000	
5	 C32	-8.453	-0.374	-21.944	C.2	1	LIG1	0.000	
6	 C33	-6.980	-0.991	-19.065	C.2	1	LIG1	0.000	
7	 C34	-13.299	-0.872	-22.975	C.2	1	LIG1	0.000	
8	 C35	-12.625	0.199	-23.462	C.2	1	LIG1	0.000	
9	 C36	-11.214	-2.060	-22.598	C.2	1	LIG1	0.000	
10	 C37	-3.140	1.572	-20.975	C.2	1	LIG1	0.000	
11	 C38	-3.845	1.154	-22.074	C.2	1	LIG1	0.000	
12	 C39	-12.609	-2.002	-22.540	C.2	1	LIG1	0.000	
13	 C40	-11.238	0.164	-23.557	C.2	1	LIG1	0.000	
14	 C41	-10.520	-0.995	-23.172	C.2	1	LIG1	0.000	
15	 C42	-5.149	0.121	-18.202	C.2	1	LIG1	0.000	
16	 C43	-3.560	1.229	-19.697	C.2	1	LIG1	0.000	
17	 C44	-4.970	0.412	-21.911	C.2	1	LIG1	0.000	
18	 C45	-6.608	-0.715	-20.391	C.2	1	LIG1	0.000	
19	 C46	-4.707	0.478	-19.498	C.2	1	LIG1	0.000	
20	 C47	-5.436	0.062	-20.631	C.2	1	LIG1	0.000	
21	 N48	-7.402	-1.106	-21.465	N.pl3	1	LIG1	0.000	
22	 N49	-9.158	1.182	-24.384	N.pl3	1	LIG1	0.000	
23	 C50	-8.416	2.319	-24.881	C.3	1	LIG1	0.000	
24	 C51	-8.376	-3.108	-24.437	C.3	1	LIG1	0.000	
25	 C52	-7.234	-2.313	-22.213	C.3	1	LIG1	0.000	
26	 C53	-8.526	-0.128	-24.426	C.3	1	LIG1	0.000	
27	 C54	-6.292	4.522	-22.708	C.3	1	LIG1	0.000	
28	 C55	-7.859	2.984	-23.593	C.3	1	LIG1	0.000	
29	 C56	-8.377	-2.343	-23.190	C.3	1	LIG1	0.000	
30	 C57	-9.018	-0.984	-23.220	C.3	1	LIG1	0.000	
31	 N58	-6.955	4.033	-23.882	N.3	1	LIG1	0.000	
32	 F29	-13.309	-3.032	-22.070	 F	1	LIG1	0.000	
@<TRIPOS>BOND
1 3 15 ar
2 1 4 2
3 2 5 2
4 5 21 1
5 3 6 ar
6 7 8 ar
7 8 13 ar
8 9 12 ar
9 10 11 ar
10 11 17 ar
11 7 12 ar
12 12 32 1
13 4 13 1
14 9 14 ar
15 13 14 ar
16 15 19 ar
17 10 16 ar
18 17 20 ar
19 6 18 ar
20 18 20 ar
21 16 19 ar
22 19 20 ar
23 18 21 1
24 21 25 1
25 4 22 1
26 22 26 1
27 22 23 1
28 25 29 1
29 26 30 1
30 27 31 1
31 23 28 1
32 24 29 1
33 5 30 1
34 14 30 1
35 29 30 1
36 28 31 1
@<TRIPOS>SUBSTRUCTURE
1	LIG1	1	GROUP	1 C	LIG
