# created with PyMOL 3.1.3.1
@<TRIPOS>MOLECULE
predicted
26 29 1                 
SMALL
USER_CHARGES
@<TRIPOS>ATOM
1	CL18	-12.758	-2.803	-21.811	Cl	1	LIG1	0.000	
2	 O15	-8.751	0.625	-20.988	O.2	1	LIG1	0.000	
3	 O16	-9.937	0.862	-26.840	O.2	1	LIG1	0.000	
4	 O17	-10.815	2.667	-25.336	O.2	1	LIG1	0.000	
5	 N19	-6.234	-0.667	-18.008	N.2	1	LIG1	0.000	
6	 N20	-3.265	1.093	-20.814	N.2	1	LIG1	0.000	
7	 C21	-8.149	0.025	-21.837	C.2	1	LIG1	0.000	
8	 C22	-6.895	-0.867	-19.148	C.2	1	LIG1	0.000	
9	 C23	-12.723	-1.013	-23.818	C.2	1	LIG1	0.000	
10	 C24	-10.695	-1.331	-22.621	C.2	1	LIG1	0.000	
11	 C25	-12.128	-0.082	-24.632	C.2	1	LIG1	0.000	
12	 C26	-12.004	-1.626	-22.824	C.2	1	LIG1	0.000	
13	 C27	-10.043	-0.361	-23.415	C.2	1	LIG1	0.000	
14	 C28	-10.785	0.212	-24.440	C.2	1	LIG1	0.000	
15	 C29	-5.039	-0.095	-17.980	C.2	1	LIG1	0.000	
16	 C30	-3.298	0.924	-19.483	C.2	1	LIG1	0.000	
17	 C31	-6.353	-0.476	-20.382	C.2	1	LIG1	0.000	
18	 C32	-4.458	0.319	-19.160	C.2	1	LIG1	0.000	
19	 C33	-5.135	0.142	-20.328	C.2	1	LIG1	0.000	
20	 N34	-7.021	-0.616	-21.627	N.pl3	1	LIG1	0.000	
21	 N35	-8.610	1.568	-25.093	N.3	1	LIG1	0.000	
22	 N36	-4.370	0.618	-21.332	N.2	1	LIG1	0.000	
23	 C37	-4.609	0.647	-22.758	C.3	1	LIG1	0.000	
24	 C38	-8.208	1.321	-23.771	C.3	1	LIG1	0.000	
25	 C39	-8.626	0.003	-23.265	C.3	1	LIG1	0.000	
26	 S40	-10.079	1.379	-25.502	S.O2	1	LIG1	0.000	
@<TRIPOS>BOND
1 5 8 ar
2 6 16 ar
3 2 7 2
4 7 25 1
5 8 17 ar
6 9 12 ar
7 10 13 ar
8 9 11 ar
9 1 12 1
10 10 12 ar
11 11 14 ar
12 13 14 ar
13 5 15 ar
14 16 18 ar
15 17 19 ar
16 17 20 1
17 15 18 ar
18 18 19 ar
19 7 20 1
20 21 26 1
21 6 22 ar
22 19 22 ar
23 22 23 1
24 21 24 1
25 13 25 1
26 24 25 1
27 3 26 2
28 4 26 2
29 14 26 1
@<TRIPOS>SUBSTRUCTURE
1	LIG1	1	GROUP	1 C	LIG
