# created with PyMOL 3.1.3.1
@<TRIPOS>MOLECULE
predicted
21 23 1                 
SMALL
USER_CHARGES
@<TRIPOS>ATOM
1	 O23	-8.427	0.515	-21.085	O.2	1	LIG1	0.000	
2	 N24	-6.025	-0.613	-17.727	N.2	1	LIG1	0.000	
3	 C25	-8.302	-0.546	-21.636	C.2	1	LIG1	0.000	
4	 C26	-6.736	-1.128	-18.747	C.2	1	LIG1	0.000	
5	 C27	-2.954	1.345	-20.773	C.2	1	LIG1	0.000	
6	 C28	-3.657	0.854	-21.830	C.2	1	LIG1	0.000	
7	 C29	-4.951	0.073	-17.941	C.2	1	LIG1	0.000	
8	 C30	-3.365	1.103	-19.476	C.2	1	LIG1	0.000	
9	 C31	-4.793	0.125	-21.637	C.2	1	LIG1	0.000	
10	 C32	-6.384	-0.940	-20.028	C.2	1	LIG1	0.000	
11	 C33	-4.506	0.353	-19.234	C.2	1	LIG1	0.000	
12	 C34	-5.233	-0.159	-20.341	C.2	1	LIG1	0.000	
13	 N35	-9.107	-0.793	-22.703	N.pl3	1	LIG1	0.000	
14	 C36	-7.255	-1.529	-21.151	C.3	1	LIG1	0.000	
15	 C37	-12.842	-2.207	-22.523	C.3	1	LIG1	0.000	
16	 C38	-12.281	-1.445	-24.826	C.3	1	LIG1	0.000	
17	 C39	-10.052	0.253	-23.131	C.3	1	LIG1	0.000	
18	 C40	-9.140	-2.048	-23.413	C.3	1	LIG1	0.000	
19	 C41	-11.436	-0.206	-22.822	C.3	1	LIG1	0.000	
20	 C42	-10.549	-2.635	-23.253	C.3	1	LIG1	0.000	
21	 C43	-11.778	-1.608	-23.397	C.3	1	LIG1	0.000	
@<TRIPOS>BOND
1 2 7 ar
2 1 3 2
3 3 14 1
4 2 4 ar
5 5 6 ar
6 6 9 ar
7 7 11 ar
8 5 8 ar
9 9 12 ar
10 4 10 ar
11 10 12 ar
12 8 11 ar
13 11 12 ar
14 3 13 1
15 13 18 1
16 10 14 1
17 15 21 1
18 13 17 1
19 18 20 1
20 17 19 1
21 16 21 1
22 19 21 1
23 20 21 1
@<TRIPOS>SUBSTRUCTURE
1	LIG1	1	GROUP	1 C	LIG
