# created with PyMOL 3.1.3.1
@<TRIPOS>MOLECULE
predicted
37 41 1                 
SMALL
USER_CHARGES
@<TRIPOS>ATOM
1	CL33	-13.229	-3.294	-21.683	Cl	1	LIG1	0.000	
2	 O30	-10.600	2.242	-24.227	O.2	1	LIG1	0.000	
3	 O31	-5.755	1.789	-24.296	O.2	1	LIG1	0.000	
4	 O32	-8.495	0.516	-21.375	O.2	1	LIG1	0.000	
5	 N34	-6.089	-0.695	-17.915	N.2	1	LIG1	0.000	
6	 O35	-7.857	-4.677	-23.986	O.3	1	LIG1	0.000	
7	 C36	-10.086	1.113	-24.083	C.2	1	LIG1	0.000	
8	 C37	-6.791	2.307	-24.039	C.2	1	LIG1	0.000	
9	 C38	-8.125	-0.552	-21.844	C.2	1	LIG1	0.000	
10	 C39	-6.787	-1.123	-18.949	C.2	1	LIG1	0.000	
11	 C40	-12.923	-0.920	-22.860	C.2	1	LIG1	0.000	
12	 C41	-12.217	0.096	-23.406	C.2	1	LIG1	0.000	
13	 C42	-10.888	-2.137	-22.415	C.2	1	LIG1	0.000	
14	 C43	-2.716	1.035	-20.886	C.2	1	LIG1	0.000	
15	 C44	-3.401	0.569	-21.981	C.2	1	LIG1	0.000	
16	 C45	-12.263	-2.039	-22.344	C.2	1	LIG1	0.000	
17	 C46	-10.845	0.014	-23.493	C.2	1	LIG1	0.000	
18	 C47	-10.177	-1.151	-23.062	C.2	1	LIG1	0.000	
19	 C48	-4.918	-0.071	-18.110	C.2	1	LIG1	0.000	
20	 C49	-3.220	0.831	-19.598	C.2	1	LIG1	0.000	
21	 C50	-4.584	-0.087	-21.820	C.2	1	LIG1	0.000	
22	 C51	-6.331	-0.943	-20.262	C.2	1	LIG1	0.000	
23	 C52	-4.403	0.170	-19.408	C.2	1	LIG1	0.000	
24	 C53	-5.103	-0.281	-20.539	C.2	1	LIG1	0.000	
25	 N54	-6.971	3.041	-22.927	N.pl3	1	LIG1	0.000	
26	 N55	-7.128	-1.315	-21.330	N.pl3	1	LIG1	0.000	
27	 N56	-8.737	0.953	-24.356	N.pl3	1	LIG1	0.000	
28	 C57	-5.904	3.347	-22.051	C.3	1	LIG1	0.000	
29	 C58	-7.990	2.060	-24.902	C.3	1	LIG1	0.000	
30	 C59	-7.477	-6.927	-24.444	C.3	1	LIG1	0.000	
31	 C60	-8.838	-5.580	-26.007	C.3	1	LIG1	0.000	
32	 C61	-7.630	-5.530	-25.080	C.3	1	LIG1	0.000	
33	 C62	-8.051	-3.333	-24.249	C.3	1	LIG1	0.000	
34	 C63	-7.005	-2.547	-22.034	C.3	1	LIG1	0.000	
35	 C64	-8.168	-0.380	-24.329	C.3	1	LIG1	0.000	
36	 C65	-8.139	-2.572	-23.009	C.3	1	LIG1	0.000	
37	 C66	-8.681	-1.184	-23.089	C.3	1	LIG1	0.000	
@<TRIPOS>BOND
1 5 19 ar
2 6 32 1
3 2 7 2
4 3 8 2
5 8 29 1
6 4 9 2
7 9 26 1
8 5 10 ar
9 11 12 ar
10 12 17 ar
11 13 16 ar
12 14 15 ar
13 15 21 ar
14 1 16 1
15 11 16 ar
16 7 17 1
17 13 18 ar
18 17 18 ar
19 19 23 ar
20 14 20 ar
21 21 24 ar
22 10 22 ar
23 22 24 ar
24 20 23 ar
25 23 24 ar
26 8 25 1
27 22 26 1
28 26 34 1
29 7 27 1
30 27 35 1
31 25 28 1
32 27 29 1
33 30 32 1
34 31 32 1
35 6 33 1
36 34 36 1
37 35 37 1
38 33 36 1
39 9 37 1
40 18 37 1
41 36 37 1
@<TRIPOS>SUBSTRUCTURE
1	LIG1	1	GROUP	1 C	LIG
