# created with PyMOL 3.1.3.1
@<TRIPOS>MOLECULE
predicted
36 41 1                 
SMALL
USER_CHARGES
@<TRIPOS>ATOM
1	 O27	-10.761	2.192	-24.468	O.2	1	LIG1	0.000	
2	 O28	-8.732	0.479	-21.443	O.2	1	LIG1	0.000	
3	 N30	-6.231	-0.592	-17.972	N.2	1	LIG1	0.000	
4	 N31	-5.395	3.432	-23.406	N.2	1	LIG1	0.000	
5	 C32	-10.267	1.065	-24.252	C.2	1	LIG1	0.000	
6	 C33	-8.327	-0.570	-21.912	C.2	1	LIG1	0.000	
7	 C34	-6.294	3.500	-22.483	C.2	1	LIG1	0.000	
8	 C35	-6.929	-1.042	-18.998	C.2	1	LIG1	0.000	
9	 C36	-13.166	-0.889	-22.928	C.2	1	LIG1	0.000	
10	 C37	-12.436	0.114	-23.506	C.2	1	LIG1	0.000	
11	 C38	-11.145	-2.152	-22.468	C.2	1	LIG1	0.000	
12	 C39	-2.903	1.155	-21.005	C.2	1	LIG1	0.000	
13	 C40	-3.601	0.674	-22.098	C.2	1	LIG1	0.000	
14	 C41	-7.482	2.933	-22.973	C.2	1	LIG1	0.000	
15	 C42	-12.532	-2.028	-22.399	C.2	1	LIG1	0.000	
16	 C43	-11.048	0.003	-23.599	C.2	1	LIG1	0.000	
17	 C44	-10.398	-1.168	-23.126	C.2	1	LIG1	0.000	
18	 C45	-5.069	0.051	-18.184	C.2	1	LIG1	0.000	
19	 C46	-3.384	0.953	-19.711	C.2	1	LIG1	0.000	
20	 C47	-4.774	0.012	-21.907	C.2	1	LIG1	0.000	
21	 C48	-6.511	-0.873	-20.332	C.2	1	LIG1	0.000	
22	 C49	-7.212	2.536	-24.276	C.2	1	LIG1	0.000	
23	 C50	-4.571	0.281	-19.489	C.2	1	LIG1	0.000	
24	 C51	-5.279	-0.191	-20.596	C.2	1	LIG1	0.000	
25	 N52	-7.298	-1.299	-21.390	N.pl3	1	LIG1	0.000	
26	 N53	-8.936	0.835	-24.567	N.pl3	1	LIG1	0.000	
27	 N54	-5.961	2.860	-24.503	N.2	1	LIG1	0.000	
28	 C55	-8.168	1.859	-25.233	C.3	1	LIG1	0.000	
29	 C56	-4.895	3.914	-26.381	C.3	1	LIG1	0.000	
30	 C57	-5.166	2.607	-25.703	C.3	1	LIG1	0.000	
31	 C58	-8.306	-3.452	-24.231	C.3	1	LIG1	0.000	
32	 C59	-7.165	-2.549	-22.057	C.3	1	LIG1	0.000	
33	 C60	-8.352	-0.474	-24.410	C.3	1	LIG1	0.000	
34	 C61	-8.314	-2.620	-23.016	C.3	1	LIG1	0.000	
35	 C62	-8.887	-1.230	-23.151	C.3	1	LIG1	0.000	
36	 F29	-13.274	-2.979	-21.848	 F	1	LIG1	0.000	
@<TRIPOS>BOND
1 3 18 ar
2 4 7 ar
3 1 5 2
4 2 6 2
5 6 25 1
6 7 14 ar
7 3 8 ar
8 9 10 ar
9 10 16 ar
10 11 15 ar
11 12 13 ar
12 13 20 ar
13 14 22 ar
14 9 15 ar
15 15 36 1
16 5 16 1
17 11 17 ar
18 16 17 ar
19 18 23 ar
20 12 19 ar
21 20 24 ar
22 8 21 ar
23 21 24 ar
24 22 28 1
25 19 23 ar
26 23 24 ar
27 21 25 1
28 25 32 1
29 5 26 1
30 26 33 1
31 4 27 ar
32 22 27 ar
33 26 28 1
34 29 30 1
35 27 30 1
36 32 34 1
37 33 35 1
38 31 34 1
39 6 35 1
40 17 35 1
41 34 35 1
@<TRIPOS>SUBSTRUCTURE
1	LIG1	1	GROUP	1 C	LIG
