# created with PyMOL 3.1.3.1
@<TRIPOS>MOLECULE
predicted
34 39 1                 
SMALL
USER_CHARGES
@<TRIPOS>ATOM
1	 O22	-10.971	2.280	-24.186	O.2	1	LIG1	0.000	
2	 O23	-8.780	0.552	-21.344	O.2	1	LIG1	0.000	
3	 N25	-7.652	2.945	-22.605	N.3	1	LIG1	0.000	
4	 N26	-6.272	-0.572	-17.926	N.2	1	LIG1	0.000	
5	 O27	-5.719	3.704	-23.224	O.3	1	LIG1	0.000	
6	 C28	-10.426	1.169	-24.026	C.2	1	LIG1	0.000	
7	 C29	-8.386	-0.493	-21.833	C.2	1	LIG1	0.000	
8	 C30	-6.496	3.411	-22.194	C.3	1	LIG1	0.000	
9	 C31	-6.973	-1.011	-18.951	C.2	1	LIG1	0.000	
10	 C32	-7.727	3.028	-23.924	C.3	1	LIG1	0.000	
11	 C33	-6.424	3.569	-24.313	C.3	1	LIG1	0.000	
12	 C34	-13.236	-0.934	-22.792	C.2	1	LIG1	0.000	
13	 C35	-12.546	0.116	-23.320	C.2	1	LIG1	0.000	
14	 C36	-11.164	-2.149	-22.415	C.2	1	LIG1	0.000	
15	 C37	-2.982	1.272	-20.930	C.2	1	LIG1	0.000	
16	 C38	-3.675	0.801	-22.014	C.2	1	LIG1	0.000	
17	 C39	-12.561	-2.071	-22.337	C.2	1	LIG1	0.000	
18	 C40	-11.158	0.050	-23.432	C.2	1	LIG1	0.000	
19	 C41	-10.455	-1.110	-23.031	C.2	1	LIG1	0.000	
20	 C42	-5.116	0.084	-18.125	C.2	1	LIG1	0.000	
21	 C43	-3.454	1.038	-19.645	C.2	1	LIG1	0.000	
22	 C44	-4.840	0.122	-21.828	C.2	1	LIG1	0.000	
23	 C45	-6.556	-0.811	-20.271	C.2	1	LIG1	0.000	
24	 C46	-4.630	0.351	-19.427	C.2	1	LIG1	0.000	
25	 C47	-5.347	-0.111	-20.541	C.2	1	LIG1	0.000	
26	 N48	-7.350	-1.216	-21.334	N.pl3	1	LIG1	0.000	
27	 N49	-9.072	1.015	-24.330	N.pl3	1	LIG1	0.000	
28	 C50	-8.335	2.083	-24.947	C.3	1	LIG1	0.000	
29	 C51	-8.340	-3.305	-24.221	C.3	1	LIG1	0.000	
30	 C52	-7.209	-2.463	-22.033	C.3	1	LIG1	0.000	
31	 C53	-8.441	-0.310	-24.295	C.3	1	LIG1	0.000	
32	 C54	-8.337	-2.502	-23.014	C.3	1	LIG1	0.000	
33	 C55	-8.955	-1.126	-23.087	C.3	1	LIG1	0.000	
34	 F24	-13.273	-3.079	-21.825	 F	1	LIG1	0.000	
@<TRIPOS>BOND
1 4 20 ar
2 5 8 1
3 1 6 2
4 6 18 1
5 2 7 2
6 7 33 1
7 3 8 1
8 4 9 ar
9 3 10 1
10 10 11 1
11 5 11 1
12 12 17 ar
13 12 13 ar
14 14 19 ar
15 15 16 ar
16 16 22 ar
17 14 17 ar
18 17 34 1
19 13 18 ar
20 18 19 ar
21 20 24 ar
22 15 21 ar
23 22 25 ar
24 9 23 ar
25 23 25 ar
26 21 24 ar
27 24 25 ar
28 7 26 1
29 23 26 1
30 6 27 1
31 27 28 1
32 10 28 1
33 29 32 1
34 26 30 1
35 27 31 1
36 30 32 1
37 32 33 1
38 19 33 1
39 31 33 1
@<TRIPOS>SUBSTRUCTURE
1	LIG1	1	GROUP	1 C	LIG
