# created with PyMOL 3.1.3.1
@<TRIPOS>MOLECULE
predicted
20 22 1                 
SMALL
USER_CHARGES
@<TRIPOS>ATOM
1	 O17	-8.517	0.542	-21.253	O.2	1	LIG1	0.000	
2	 N18	-6.110	-0.655	-17.808	N.2	1	LIG1	0.000	
3	 C19	-8.455	-0.577	-21.740	C.2	1	LIG1	0.000	
4	 C20	-12.186	-2.072	-23.307	C.3	1	LIG1	0.000	
5	 C21	-12.364	-0.650	-23.416	C.3	1	LIG1	0.000	
6	 C22	-10.930	-2.664	-22.671	C.3	1	LIG1	0.000	
7	 C23	-11.284	0.390	-23.407	C.3	1	LIG1	0.000	
8	 C24	-6.860	-1.144	-18.790	C.2	1	LIG1	0.000	
9	 C25	-3.021	1.155	-20.955	C.2	1	LIG1	0.000	
10	 C26	-3.772	0.679	-21.987	C.2	1	LIG1	0.000	
11	 C27	-5.006	-0.019	-18.044	C.2	1	LIG1	0.000	
12	 C28	-3.410	0.942	-19.651	C.2	1	LIG1	0.000	
13	 C29	-4.939	-0.002	-21.756	C.2	1	LIG1	0.000	
14	 C30	-6.557	-0.969	-20.129	C.2	1	LIG1	0.000	
15	 C31	-4.569	0.242	-19.361	C.2	1	LIG1	0.000	
16	 C32	-5.345	-0.252	-20.450	C.2	1	LIG1	0.000	
17	 N33	-9.251	-0.906	-22.851	N.pl3	1	LIG1	0.000	
18	 C34	-7.471	-1.555	-21.187	C.3	1	LIG1	0.000	
19	 C35	-9.556	-2.233	-23.277	C.3	1	LIG1	0.000	
20	 C36	-9.828	0.078	-23.715	C.3	1	LIG1	0.000	
@<TRIPOS>BOND
1 1 3 2
2 2 11 ar
3 3 17 1
4 3 18 1
5 4 5 1
6 5 7 1
7 4 6 1
8 7 20 1
9 2 8 ar
10 9 10 ar
11 10 13 ar
12 11 15 ar
13 9 12 ar
14 13 16 ar
15 8 14 ar
16 14 16 ar
17 12 15 ar
18 15 16 ar
19 17 19 1
20 17 20 1
21 14 18 1
22 6 19 1
@<TRIPOS>SUBSTRUCTURE
1	LIG1	1	GROUP	1 C	LIG
