# created with PyMOL 3.1.3.1
@<TRIPOS>MOLECULE
predicted
43 49 1                 
SMALL
USER_CHARGES
@<TRIPOS>ATOM
1	CL36	-13.106	-3.199	-22.028	Cl	1	LIG1	0.000	
2	 O34	-10.604	2.498	-24.250	O.2	1	LIG1	0.000	
3	 O35	-8.519	0.685	-21.339	O.2	1	LIG1	0.000	
4	 N37	-8.528	-5.938	-25.103	N.2	1	LIG1	0.000	
5	 N38	-7.386	-4.712	-26.774	N.2	1	LIG1	0.000	
6	 N39	-6.031	-0.645	-17.913	N.2	1	LIG1	0.000	
7	 O40	-6.157	6.932	-22.648	O.3	1	LIG1	0.000	
8	 C41	-10.039	1.403	-24.066	C.2	1	LIG1	0.000	
9	 C42	-8.085	-0.333	-21.822	C.2	1	LIG1	0.000	
10	 C43	-7.695	-4.941	-25.479	C.2	1	LIG1	0.000	
11	 C44	-9.118	-6.649	-26.022	C.2	1	LIG1	0.000	
12	 C45	-7.953	-5.441	-27.698	C.2	1	LIG1	0.000	
13	 C46	-6.716	-1.035	-18.975	C.2	1	LIG1	0.000	
14	 C47	-8.879	-6.425	-27.386	C.2	1	LIG1	0.000	
15	 C48	-12.848	-0.805	-23.084	C.2	1	LIG1	0.000	
16	 C49	-12.153	0.261	-23.544	C.2	1	LIG1	0.000	
17	 C50	-10.781	-1.966	-22.618	C.2	1	LIG1	0.000	
18	 C51	-2.822	1.516	-20.782	C.2	1	LIG1	0.000	
19	 C52	-3.522	1.125	-21.910	C.2	1	LIG1	0.000	
20	 C53	-12.178	-1.916	-22.624	C.2	1	LIG1	0.000	
21	 C54	-10.771	0.226	-23.576	C.2	1	LIG1	0.000	
22	 C55	-10.078	-0.921	-23.166	C.2	1	LIG1	0.000	
23	 C56	-4.906	0.051	-18.066	C.2	1	LIG1	0.000	
24	 C57	-3.279	1.157	-19.511	C.2	1	LIG1	0.000	
25	 C58	-4.642	0.388	-21.766	C.2	1	LIG1	0.000	
26	 C59	-6.311	-0.719	-20.263	C.2	1	LIG1	0.000	
27	 C60	-4.423	0.415	-19.341	C.2	1	LIG1	0.000	
28	 C61	-5.121	0.029	-20.490	C.2	1	LIG1	0.000	
29	 N62	-7.165	-4.122	-24.499	N.pl3	1	LIG1	0.000	
30	 N63	-7.079	-1.092	-21.343	N.pl3	1	LIG1	0.000	
31	 N64	-8.674	1.309	-24.265	N.pl3	1	LIG1	0.000	
32	 C65	-6.936	6.695	-23.902	C.3	1	LIG1	0.000	
33	 C66	-5.094	5.878	-22.557	C.3	1	LIG1	0.000	
34	 C67	-7.927	2.458	-24.664	C.3	1	LIG1	0.000	
35	 C68	-7.594	-2.750	-24.456	C.3	1	LIG1	0.000	
36	 C69	-6.878	-2.274	-22.073	C.3	1	LIG1	0.000	
37	 C70	-8.033	0.042	-24.271	C.3	1	LIG1	0.000	
38	 C71	-7.675	5.366	-23.760	C.3	1	LIG1	0.000	
39	 C72	-5.819	4.564	-22.359	C.3	1	LIG1	0.000	
40	 C73	-7.322	3.026	-23.378	C.3	1	LIG1	0.000	
41	 C74	-7.930	-2.259	-23.166	C.3	1	LIG1	0.000	
42	 C75	-8.565	-0.891	-23.150	C.3	1	LIG1	0.000	
43	 N76	-6.691	4.281	-23.562	N.3	1	LIG1	0.000	
@<TRIPOS>BOND
1 2 8 2
2 4 11 ar
3 6 23 ar
4 7 33 1
5 8 21 1
6 8 31 1
7 3 9 2
8 9 30 1
9 4 10 ar
10 5 10 ar
11 11 14 ar
12 5 12 ar
13 6 13 ar
14 12 14 ar
15 15 20 ar
16 15 16 ar
17 17 22 ar
18 18 19 ar
19 19 25 ar
20 1 20 1
21 17 20 ar
22 16 21 ar
23 21 22 ar
24 22 42 1
25 23 27 ar
26 18 24 ar
27 25 28 ar
28 13 26 ar
29 26 28 ar
30 24 27 ar
31 27 28 ar
32 10 29 1
33 26 30 1
34 30 36 1
35 31 34 1
36 7 32 1
37 33 39 1
38 34 40 1
39 29 35 1
40 36 41 1
41 31 37 1
42 32 38 1
43 40 43 1
44 35 41 1
45 9 42 1
46 37 42 1
47 41 42 1
48 38 43 1
49 39 43 1
@<TRIPOS>SUBSTRUCTURE
1	LIG1	1	GROUP	1 C	LIG
