# created with PyMOL 3.1.3.1
@<TRIPOS>MOLECULE
predicted
40 45 1                 
SMALL
USER_CHARGES
@<TRIPOS>ATOM
1	CL31	-13.203	-3.201	-21.832	Cl	1	LIG1	0.000	
2	 O28	-10.613	2.247	-24.603	O.2	1	LIG1	0.000	
3	 O29	-5.831	2.414	-24.468	O.2	1	LIG1	0.000	
4	 O30	-8.516	0.616	-21.548	O.2	1	LIG1	0.000	
5	 N32	-6.522	-6.483	-27.114	N.2	1	LIG1	0.000	
6	 N33	-6.142	-0.735	-17.937	N.2	1	LIG1	0.000	
7	 S34	-8.613	-5.874	-26.047	S.2	1	LIG1	0.000	
8	 C35	-10.079	1.142	-24.385	C.2	1	LIG1	0.000	
9	 C36	-6.980	2.592	-24.293	C.2	1	LIG1	0.000	
10	 C37	-8.136	-0.454	-21.977	C.2	1	LIG1	0.000	
11	 C38	-7.836	-6.677	-27.174	C.2	1	LIG1	0.000	
12	 C39	-6.212	-5.649	-26.136	C.2	1	LIG1	0.000	
13	 C40	-6.827	-1.150	-18.998	C.2	1	LIG1	0.000	
14	 C41	-7.253	-5.167	-25.445	C.2	1	LIG1	0.000	
15	 C42	-12.916	-0.868	-23.085	C.2	1	LIG1	0.000	
16	 C43	-12.208	0.136	-23.671	C.2	1	LIG1	0.000	
17	 C44	-10.867	-2.049	-22.579	C.2	1	LIG1	0.000	
18	 C45	-2.834	1.256	-20.795	C.2	1	LIG1	0.000	
19	 C46	-3.519	0.846	-21.929	C.2	1	LIG1	0.000	
20	 C47	-12.247	-1.965	-22.533	C.2	1	LIG1	0.000	
21	 C48	-10.832	0.063	-23.744	C.2	1	LIG1	0.000	
22	 C49	-10.158	-1.072	-23.244	C.2	1	LIG1	0.000	
23	 C50	-4.996	-0.071	-18.094	C.2	1	LIG1	0.000	
24	 C51	-3.317	0.954	-19.521	C.2	1	LIG1	0.000	
25	 C52	-4.680	0.152	-21.798	C.2	1	LIG1	0.000	
26	 C53	-6.408	-0.850	-20.311	C.2	1	LIG1	0.000	
27	 C54	-4.487	0.253	-19.371	C.2	1	LIG1	0.000	
28	 C55	-5.179	-0.151	-20.521	C.2	1	LIG1	0.000	
29	 N56	-7.426	3.214	-23.190	N.pl3	1	LIG1	0.000	
30	 N57	-7.187	-4.272	-24.416	N.pl3	1	LIG1	0.000	
31	 N58	-7.175	-1.232	-21.404	N.pl3	1	LIG1	0.000	
32	 N59	-8.734	0.975	-24.627	N.pl3	1	LIG1	0.000	
33	 C60	-8.490	-7.552	-28.173	C.3	1	LIG1	0.000	
34	 C61	-6.514	3.794	-22.236	C.3	1	LIG1	0.000	
35	 C62	-7.999	2.034	-25.253	C.3	1	LIG1	0.000	
36	 C63	-8.243	-3.318	-24.213	C.3	1	LIG1	0.000	
37	 C64	-7.066	-2.480	-22.054	C.3	1	LIG1	0.000	
38	 C65	-8.120	-0.322	-24.489	C.3	1	LIG1	0.000	
39	 C66	-8.072	-2.474	-23.126	C.3	1	LIG1	0.000	
40	 C67	-8.658	-1.112	-23.238	C.3	1	LIG1	0.000	
@<TRIPOS>BOND
1 5 11 ar
2 6 23 ar
3 2 8 2
4 3 9 2
5 9 35 1
6 4 10 2
7 10 31 1
8 7 11 ar
9 11 33 1
10 5 12 ar
11 6 13 ar
12 7 14 ar
13 12 14 ar
14 15 16 ar
15 16 21 ar
16 17 20 ar
17 18 19 ar
18 19 25 ar
19 1 20 1
20 15 20 ar
21 8 21 1
22 17 22 ar
23 21 22 ar
24 23 27 ar
25 18 24 ar
26 25 28 ar
27 13 26 ar
28 26 28 ar
29 24 27 ar
30 27 28 ar
31 9 29 1
32 14 30 1
33 26 31 1
34 31 37 1
35 8 32 1
36 32 38 1
37 29 34 1
38 32 35 1
39 30 36 1
40 37 39 1
41 38 40 1
42 36 39 1
43 10 40 1
44 22 40 1
45 39 40 1
@<TRIPOS>SUBSTRUCTURE
1	LIG1	1	GROUP	1 C	LIG
