# created with PyMOL 3.1.3.1
@<TRIPOS>MOLECULE
predicted
39 43 1                 
SMALL
USER_CHARGES
@<TRIPOS>ATOM
1	 O29	-10.771	2.285	-24.290	O.2	1	LIG1	0.000	
2	 O30	-5.903	1.999	-24.464	O.2	1	LIG1	0.000	
3	 O31	-8.649	0.588	-21.470	O.2	1	LIG1	0.000	
4	 O32	-7.950	-5.736	-23.521	O.2	1	LIG1	0.000	
5	 O33	-6.043	-4.601	-24.431	O.2	1	LIG1	0.000	
6	 N35	-6.212	-0.596	-17.941	N.2	1	LIG1	0.000	
7	 C36	-10.243	1.157	-24.159	C.2	1	LIG1	0.000	
8	 C37	-6.986	2.403	-24.173	C.2	1	LIG1	0.000	
9	 C38	-8.245	-0.489	-21.939	C.2	1	LIG1	0.000	
10	 C39	-6.895	-1.024	-19.001	C.2	1	LIG1	0.000	
11	 C40	-13.043	-0.943	-22.911	C.2	1	LIG1	0.000	
12	 C41	-12.354	0.115	-23.440	C.2	1	LIG1	0.000	
13	 C42	-10.991	-2.178	-22.561	C.2	1	LIG1	0.000	
14	 C43	-2.805	1.165	-20.858	C.2	1	LIG1	0.000	
15	 C44	-3.480	0.699	-21.975	C.2	1	LIG1	0.000	
16	 C45	-12.373	-2.091	-22.457	C.2	1	LIG1	0.000	
17	 C46	-10.979	0.040	-23.568	C.2	1	LIG1	0.000	
18	 C47	-10.294	-1.138	-23.184	C.2	1	LIG1	0.000	
19	 C48	-5.045	0.040	-18.112	C.2	1	LIG1	0.000	
20	 C49	-3.323	0.951	-19.575	C.2	1	LIG1	0.000	
21	 C50	-4.665	0.030	-21.846	C.2	1	LIG1	0.000	
22	 C51	-6.444	-0.852	-20.320	C.2	1	LIG1	0.000	
23	 C52	-4.513	0.280	-19.403	C.2	1	LIG1	0.000	
24	 C53	-5.208	-0.178	-20.566	C.2	1	LIG1	0.000	
25	 N54	-7.237	3.056	-23.027	N.pl3	1	LIG1	0.000	
26	 N55	-7.242	-1.245	-21.413	N.pl3	1	LIG1	0.000	
27	 N56	-8.916	0.988	-24.484	N.pl3	1	LIG1	0.000	
28	 N57	-7.790	-5.465	-26.100	N.3	1	LIG1	0.000	
29	 C58	-6.199	3.415	-22.127	C.3	1	LIG1	0.000	
30	 C59	-7.110	-4.874	-27.218	C.3	1	LIG1	0.000	
31	 C60	-9.081	-6.045	-26.320	C.3	1	LIG1	0.000	
32	 C61	-8.165	2.090	-25.055	C.3	1	LIG1	0.000	
33	 C62	-7.124	-2.493	-22.139	C.3	1	LIG1	0.000	
34	 C63	-8.311	-0.335	-24.460	C.3	1	LIG1	0.000	
35	 C64	-8.324	-3.270	-24.465	C.3	1	LIG1	0.000	
36	 C65	-8.178	-2.523	-23.172	C.3	1	LIG1	0.000	
37	 C66	-8.784	-1.146	-23.217	C.3	1	LIG1	0.000	
38	 S67	-7.491	-4.823	-24.598	S.O2	1	LIG1	0.000	
39	 F34	-13.084	-3.084	-21.941	 F	1	LIG1	0.000	
@<TRIPOS>BOND
1 6 19 ar
2 1 7 2
3 2 8 2
4 8 32 1
5 3 9 2
6 9 26 1
7 6 10 ar
8 11 12 ar
9 12 17 ar
10 13 16 ar
11 14 15 ar
12 15 21 ar
13 11 16 ar
14 16 39 1
15 7 17 1
16 13 18 ar
17 17 18 ar
18 19 23 ar
19 14 20 ar
20 21 24 ar
21 10 22 ar
22 22 24 ar
23 20 23 ar
24 23 24 ar
25 8 25 1
26 22 26 1
27 26 33 1
28 7 27 1
29 27 34 1
30 28 30 1
31 28 31 1
32 25 29 1
33 27 32 1
34 33 36 1
35 34 37 1
36 35 38 1
37 35 36 1
38 9 37 1
39 18 37 1
40 36 37 1
41 4 38 2
42 5 38 2
43 28 38 1
@<TRIPOS>SUBSTRUCTURE
1	LIG1	1	GROUP	1 C	LIG
