# created with PyMOL 3.1.3.1
@<TRIPOS>MOLECULE
predicted
23 26 1                 
SMALL
USER_CHARGES
@<TRIPOS>ATOM
1	 O19	-8.254	0.399	-21.298	O.2	1	LIG1	0.000	
2	 N20	-6.067	-0.526	-17.760	N.2	1	LIG1	0.000	
3	 S21	-13.051	-0.920	-23.307	S.2	1	LIG1	0.000	
4	 C22	-8.063	-0.677	-21.803	C.2	1	LIG1	0.000	
5	 C23	-6.715	-1.109	-18.761	C.2	1	LIG1	0.000	
6	 C24	-12.886	-2.252	-22.308	C.2	1	LIG1	0.000	
7	 C25	-11.370	-0.960	-23.770	C.2	1	LIG1	0.000	
8	 C26	-11.599	-2.711	-22.309	C.2	1	LIG1	0.000	
9	 C27	-2.870	1.260	-20.782	C.2	1	LIG1	0.000	
10	 C28	-3.511	0.677	-21.830	C.2	1	LIG1	0.000	
11	 C29	-10.732	-2.015	-23.130	C.2	1	LIG1	0.000	
12	 C30	-4.984	0.158	-17.953	C.2	1	LIG1	0.000	
13	 C31	-3.340	1.105	-19.485	C.2	1	LIG1	0.000	
14	 C32	-4.651	-0.045	-21.642	C.2	1	LIG1	0.000	
15	 C33	-6.299	-0.996	-20.068	C.2	1	LIG1	0.000	
16	 C34	-4.478	0.358	-19.249	C.2	1	LIG1	0.000	
17	 C35	-5.143	-0.235	-20.354	C.2	1	LIG1	0.000	
18	 N36	-8.553	-1.058	-23.054	N.pl3	1	LIG1	0.000	
19	 C37	-7.117	-1.647	-21.158	C.3	1	LIG1	0.000	
20	 C38	-9.246	-2.285	-23.307	C.3	1	LIG1	0.000	
21	 C39	-10.776	0.100	-24.695	C.3	1	LIG1	0.000	
22	 C40	-8.362	-0.257	-24.215	C.3	1	LIG1	0.000	
23	 C41	-9.464	0.747	-24.304	C.3	1	LIG1	0.000	
@<TRIPOS>BOND
1 1 4 2
2 2 12 ar
3 3 6 ar
4 4 18 1
5 4 19 1
6 2 5 ar
7 6 8 ar
8 3 7 ar
9 7 11 ar
10 8 11 ar
11 9 10 ar
12 10 14 ar
13 11 20 1
14 12 16 ar
15 9 13 ar
16 14 17 ar
17 5 15 ar
18 15 17 ar
19 13 16 ar
20 16 17 ar
21 18 20 1
22 18 22 1
23 15 19 1
24 7 21 1
25 22 23 1
26 21 23 1
@<TRIPOS>SUBSTRUCTURE
1	LIG1	1	GROUP	1 C	LIG
