# created with PyMOL 3.1.3.1
@<TRIPOS>MOLECULE
predicted
36 41 1                 
SMALL
USER_CHARGES
@<TRIPOS>ATOM
1	 O27	-10.647	2.433	-24.538	O.2	1	LIG1	0.000	
2	 O28	-8.641	0.648	-21.516	O.2	1	LIG1	0.000	
3	 N30	-6.166	-0.476	-18.052	N.2	1	LIG1	0.000	
4	 N31	-5.406	3.850	-23.325	N.2	1	LIG1	0.000	
5	 C32	-10.149	1.298	-24.336	C.2	1	LIG1	0.000	
6	 C33	-8.230	-0.394	-22.004	C.2	1	LIG1	0.000	
7	 C34	-6.266	3.698	-22.384	C.2	1	LIG1	0.000	
8	 C35	-6.864	-0.899	-19.090	C.2	1	LIG1	0.000	
9	 C36	-13.071	-0.693	-23.098	C.2	1	LIG1	0.000	
10	 C37	-12.332	0.330	-23.644	C.2	1	LIG1	0.000	
11	 C38	-11.048	-1.966	-22.638	C.2	1	LIG1	0.000	
12	 C39	-2.751	1.214	-21.015	C.2	1	LIG1	0.000	
13	 C40	-3.441	0.761	-22.117	C.2	1	LIG1	0.000	
14	 C41	-7.410	3.077	-22.912	C.2	1	LIG1	0.000	
15	 C42	-12.439	-1.845	-22.590	C.2	1	LIG1	0.000	
16	 C43	-10.938	0.214	-23.722	C.2	1	LIG1	0.000	
17	 C44	-10.291	-0.967	-23.268	C.2	1	LIG1	0.000	
18	 C45	-4.985	0.140	-18.237	C.2	1	LIG1	0.000	
19	 C46	-3.255	1.011	-19.729	C.2	1	LIG1	0.000	
20	 C47	-4.634	0.130	-21.954	C.2	1	LIG1	0.000	
21	 C48	-6.416	-0.733	-20.415	C.2	1	LIG1	0.000	
22	 C49	-7.130	2.824	-24.243	C.2	1	LIG1	0.000	
23	 C50	-4.460	0.368	-19.527	C.2	1	LIG1	0.000	
24	 C51	-5.162	-0.073	-20.650	C.2	1	LIG1	0.000	
25	 N52	-7.201	-1.130	-21.489	N.pl3	1	LIG1	0.000	
26	 N53	-8.805	1.077	-24.631	N.pl3	1	LIG1	0.000	
27	 N54	-5.948	3.347	-24.467	N.2	1	LIG1	0.000	
28	 C55	-8.032	2.127	-25.252	C.3	1	LIG1	0.000	
29	 C56	-4.158	2.454	-25.760	C.3	1	LIG1	0.000	
30	 C57	-5.211	3.424	-25.720	C.3	1	LIG1	0.000	
31	 C58	-8.206	-3.243	-24.382	C.3	1	LIG1	0.000	
32	 C59	-7.063	-2.368	-22.185	C.3	1	LIG1	0.000	
33	 C60	-8.222	-0.243	-24.497	C.3	1	LIG1	0.000	
34	 C61	-8.207	-2.420	-23.158	C.3	1	LIG1	0.000	
35	 C62	-8.776	-1.021	-23.269	C.3	1	LIG1	0.000	
36	 F29	-13.189	-2.808	-22.072	 F	1	LIG1	0.000	
@<TRIPOS>BOND
1 3 18 ar
2 4 7 ar
3 1 5 2
4 2 6 2
5 6 25 1
6 7 14 ar
7 3 8 ar
8 9 10 ar
9 10 16 ar
10 11 15 ar
11 12 13 ar
12 13 20 ar
13 14 22 ar
14 9 15 ar
15 15 36 1
16 5 16 1
17 11 17 ar
18 16 17 ar
19 18 23 ar
20 12 19 ar
21 20 24 ar
22 8 21 ar
23 21 24 ar
24 22 28 1
25 19 23 ar
26 23 24 ar
27 21 25 1
28 25 32 1
29 5 26 1
30 26 33 1
31 4 27 ar
32 22 27 ar
33 26 28 1
34 29 30 1
35 27 30 1
36 32 34 1
37 33 35 1
38 31 34 1
39 6 35 1
40 17 35 1
41 34 35 1
@<TRIPOS>SUBSTRUCTURE
1	LIG1	1	GROUP	1 C	LIG
