# created with PyMOL 3.1.3.1
@<TRIPOS>MOLECULE
predicted
31 36 1                 
SMALL
USER_CHARGES
@<TRIPOS>ATOM
1	CL29	-13.123	-2.611	-21.582	Cl	1	LIG1	0.000	
2	 O28	-8.251	0.532	-21.054	O.2	1	LIG1	0.000	
3	 N30	-6.020	-0.591	-17.581	N.2	1	LIG1	0.000	
4	 C31	-8.039	-0.506	-21.649	C.2	1	LIG1	0.000	
5	 C32	-6.713	-1.124	-18.603	C.2	1	LIG1	0.000	
6	 C33	-11.461	-3.699	-24.967	C.2	1	LIG1	0.000	
7	 C34	-12.378	-3.532	-23.941	C.2	1	LIG1	0.000	
8	 C35	-10.183	-3.160	-24.814	C.2	1	LIG1	0.000	
9	 C36	-10.736	-2.283	-22.673	C.2	1	LIG1	0.000	
10	 C37	-2.831	1.118	-20.667	C.2	1	LIG1	0.000	
11	 C38	-3.523	0.586	-21.703	C.2	1	LIG1	0.000	
12	 C39	-12.018	-2.829	-22.806	C.2	1	LIG1	0.000	
13	 C40	-9.839	-2.468	-23.684	C.2	1	LIG1	0.000	
14	 C41	-4.905	0.041	-17.801	C.2	1	LIG1	0.000	
15	 C42	-3.276	0.957	-19.367	C.2	1	LIG1	0.000	
16	 C43	-4.674	-0.111	-21.505	C.2	1	LIG1	0.000	
17	 C44	-6.332	-1.043	-19.935	C.2	1	LIG1	0.000	
18	 C45	-4.428	0.229	-19.118	C.2	1	LIG1	0.000	
19	 C46	-5.155	-0.320	-20.210	C.2	1	LIG1	0.000	
20	 N47	-8.432	-0.591	-22.923	N.pl3	1	LIG1	0.000	
21	 C48	-7.196	-1.612	-21.033	C.3	1	LIG1	0.000	
22	 C49	-8.416	-1.901	-23.604	C.3	1	LIG1	0.000	
23	 C50	-12.108	3.542	-23.229	C.3	1	LIG1	0.000	
24	 C51	-11.009	4.612	-23.080	C.3	1	LIG1	0.000	
25	 C52	-8.881	0.748	-25.082	C.3	1	LIG1	0.000	
26	 C53	-7.885	1.756	-23.588	C.3	1	LIG1	0.000	
27	 C54	-10.911	3.496	-24.157	C.3	1	LIG1	0.000	
28	 C55	-10.149	1.275	-23.233	C.3	1	LIG1	0.000	
29	 C56	-8.907	0.591	-23.623	C.3	1	LIG1	0.000	
30	 C57	-8.680	2.362	-24.698	C.3	1	LIG1	0.000	
31	 N58	-9.935	2.581	-23.788	N.3	1	LIG1	0.000	
@<TRIPOS>BOND
1 2 4 2
2 3 14 ar
3 4 20 1
4 4 21 1
5 3 5 ar
6 6 7 ar
7 7 12 ar
8 6 8 ar
9 10 11 ar
10 11 16 ar
11 1 12 1
12 9 12 ar
13 8 13 ar
14 9 13 ar
15 14 18 ar
16 10 15 ar
17 16 19 ar
18 5 17 ar
19 17 19 ar
20 15 18 ar
21 18 19 ar
22 20 22 1
23 20 29 1
24 17 21 1
25 13 22 1
26 23 24 1
27 23 27 1
28 24 27 1
29 28 31 1
30 25 29 1
31 26 29 1
32 28 29 1
33 25 30 1
34 26 30 1
35 27 31 1
36 30 31 1
@<TRIPOS>SUBSTRUCTURE
1	LIG1	1	GROUP	1 C	LIG
