# created with PyMOL 3.1.3.1
@<TRIPOS>MOLECULE
predicted
24 27 1                 
SMALL
USER_CHARGES
@<TRIPOS>ATOM
1	 O17	-7.927	1.243	-21.862	O.2	1	LIG1	0.000	
2	 N18	-6.153	-0.541	-17.870	N.2	1	LIG1	0.000	
3	 N19	-7.512	-2.149	-21.749	N.2	1	LIG1	0.000	
4	 C20	-6.871	-0.871	-18.926	C.2	1	LIG1	0.000	
5	 C21	-13.201	-2.155	-23.224	C.3	1	LIG1	0.000	
6	 C22	-12.647	-2.422	-24.436	C.3	1	LIG1	0.000	
7	 C23	-12.430	-2.221	-22.108	C.3	1	LIG1	0.000	
8	 C24	-11.281	-2.699	-24.530	C.3	1	LIG1	0.000	
9	 C25	-11.079	-2.481	-22.207	C.3	1	LIG1	0.000	
10	 C26	-2.799	1.312	-20.675	C.2	1	LIG1	0.000	
11	 C27	-3.507	0.988	-21.797	C.2	1	LIG1	0.000	
12	 C28	-10.521	-2.732	-23.417	C.3	1	LIG1	0.000	
13	 C29	-4.993	0.055	-18.009	C.2	1	LIG1	0.000	
14	 C30	-3.273	1.025	-19.425	C.2	1	LIG1	0.000	
15	 C31	-4.707	0.369	-21.692	C.2	1	LIG1	0.000	
16	 C32	-6.454	-0.593	-20.215	C.2	1	LIG1	0.000	
17	 C33	-8.363	-1.957	-22.805	C.2	1	LIG1	0.000	
18	 C34	-7.953	0.019	-22.055	C.2	1	LIG1	0.000	
19	 C35	-4.481	0.389	-19.270	C.2	1	LIG1	0.000	
20	 C36	-5.220	0.057	-20.415	C.2	1	LIG1	0.000	
21	 N37	-7.265	-0.906	-21.304	N.2	1	LIG1	0.000	
22	 N38	-8.587	-0.643	-23.006	N.2	1	LIG1	0.000	
23	 C39	-9.051	-3.003	-23.560	C.3	1	LIG1	0.000	
24	 C40	-9.383	-0.024	-24.035	C.3	1	LIG1	0.000	
@<TRIPOS>BOND
1 2 13 ar
2 3 21 ar
3 2 4 ar
4 5 7 1
5 5 6 1
6 7 9 1
7 6 8 1
8 10 11 ar
9 11 15 ar
10 8 12 1
11 9 12 1
12 13 19 ar
13 10 14 ar
14 15 20 ar
15 4 16 ar
16 16 20 ar
17 3 17 ar
18 17 23 1
19 1 18 2
20 14 19 ar
21 19 20 ar
22 16 21 1
23 18 21 ar
24 17 22 ar
25 18 22 ar
26 12 23 1
27 22 24 1
@<TRIPOS>SUBSTRUCTURE
1	LIG1	1	GROUP	1 C	LIG
