# created with PyMOL 3.1.3.1
@<TRIPOS>MOLECULE
predicted
27 31 1                 
SMALL
USER_CHARGES
@<TRIPOS>ATOM
1	 O19	-5.533	-3.298	-21.488	O.2	1	LIG1	0.000	
2	 O20	-8.417	0.151	-21.060	O.2	1	LIG1	0.000	
3	 O21	-11.032	-0.827	-25.592	O.2	1	LIG1	0.000	
4	 O22	-12.132	0.472	-23.889	O.2	1	LIG1	0.000	
5	 N23	-5.846	-0.391	-17.602	N.2	1	LIG1	0.000	
6	 C24	-6.471	-2.564	-21.701	C.2	1	LIG1	0.000	
7	 C25	-7.899	-0.887	-21.492	C.2	1	LIG1	0.000	
8	 C26	-6.493	-0.925	-18.609	C.2	1	LIG1	0.000	
9	 C27	-2.578	1.330	-20.631	C.2	1	LIG1	0.000	
10	 C28	-3.212	0.739	-21.693	C.2	1	LIG1	0.000	
11	 C29	-4.718	0.272	-17.830	C.2	1	LIG1	0.000	
12	 C30	-3.062	1.200	-19.362	C.2	1	LIG1	0.000	
13	 C31	-4.331	0.014	-21.493	C.2	1	LIG1	0.000	
14	 C32	-6.016	-0.911	-19.906	C.2	1	LIG1	0.000	
15	 C33	-4.199	0.451	-19.123	C.2	1	LIG1	0.000	
16	 C34	-4.857	-0.139	-20.192	C.2	1	LIG1	0.000	
17	 N35	-6.743	-1.443	-20.985	N.pl3	1	LIG1	0.000	
18	 N36	-7.402	-2.738	-22.660	N.pl3	1	LIG1	0.000	
19	 N37	-10.227	-0.841	-23.245	N.3	1	LIG1	0.000	
20	 C38	-7.395	-3.820	-23.630	C.3	1	LIG1	0.000	
21	 C39	-8.715	-0.938	-23.817	C.3	1	LIG1	0.000	
22	 C40	-9.772	-2.148	-22.493	C.3	1	LIG1	0.000	
23	 C41	-12.509	-3.182	-23.223	C.3	1	LIG1	0.000	
24	 C42	-13.087	-2.097	-22.462	C.3	1	LIG1	0.000	
25	 C43	-8.355	-1.731	-22.593	C.3	1	LIG1	0.000	
26	 C44	-12.612	-2.009	-23.981	C.3	1	LIG1	0.000	
27	 S45	-11.486	-0.738	-24.231	S.O2	1	LIG1	0.000	
@<TRIPOS>BOND
1 5 11 ar
2 1 6 2
3 6 17 1
4 2 7 2
5 7 25 1
6 5 8 ar
7 9 10 ar
8 10 13 ar
9 11 15 ar
10 9 12 ar
11 13 16 ar
12 8 14 ar
13 14 16 ar
14 12 15 ar
15 15 16 ar
16 7 17 1
17 14 17 1
18 6 18 1
19 18 25 1
20 19 22 1
21 19 27 1
22 18 20 1
23 19 21 1
24 23 24 1
25 21 25 1
26 22 25 1
27 23 26 1
28 24 26 1
29 3 27 2
30 4 27 2
31 26 27 1
@<TRIPOS>SUBSTRUCTURE
1	LIG1	1	GROUP	1 C	LIG
