# created with PyMOL 3.1.3.1
@<TRIPOS>MOLECULE
predicted
24 26 1                 
SMALL
USER_CHARGES
@<TRIPOS>ATOM
1	 O29	-8.068	0.616	-21.082	O.2	1	LIG1	0.000	
2	 N30	-5.937	-0.471	-17.724	N.2	1	LIG1	0.000	
3	 C31	-7.856	-0.397	-21.695	C.2	1	LIG1	0.000	
4	 C32	-6.571	-0.999	-18.771	C.2	1	LIG1	0.000	
5	 C33	-2.689	1.423	-20.627	C.2	1	LIG1	0.000	
6	 C34	-3.313	0.901	-21.697	C.2	1	LIG1	0.000	
7	 C35	-4.849	0.210	-17.883	C.2	1	LIG1	0.000	
8	 C36	-3.182	1.208	-19.362	C.2	1	LIG1	0.000	
9	 C37	-4.447	0.177	-21.559	C.2	1	LIG1	0.000	
10	 C38	-6.132	-0.834	-20.049	C.2	1	LIG1	0.000	
11	 C39	-4.320	0.461	-19.166	C.2	1	LIG1	0.000	
12	 C40	-4.970	-0.079	-20.296	C.2	1	LIG1	0.000	
13	 N41	-8.418	-0.518	-22.863	N.pl3	1	LIG1	0.000	
14	 C42	-6.916	-1.436	-21.159	C.3	1	LIG1	0.000	
15	 C43	-13.632	-3.253	-24.175	C.3	1	LIG1	0.000	
16	 C44	-12.888	-2.338	-21.928	C.3	1	LIG1	0.000	
17	 C45	-10.539	-0.629	-25.642	C.3	1	LIG1	0.000	
18	 C46	-8.420	-1.749	-23.626	C.3	1	LIG1	0.000	
19	 C47	-9.146	0.634	-23.396	C.3	1	LIG1	0.000	
20	 C48	-9.899	-2.151	-23.712	C.3	1	LIG1	0.000	
21	 C49	-10.609	0.301	-23.341	C.3	1	LIG1	0.000	
22	 C50	-12.243	-1.289	-24.097	C.3	1	LIG1	0.000	
23	 C51	-12.534	-2.572	-23.377	C.3	1	LIG1	0.000	
24	 C52	-10.845	-0.950	-24.217	C.3	1	LIG1	0.000	
@<TRIPOS>BOND
1 2 7 ar
2 1 3 2
3 3 14 1
4 2 4 ar
5 5 6 ar
6 6 9 ar
7 7 11 ar
8 5 8 ar
9 9 12 ar
10 4 10 ar
11 10 12 ar
12 8 11 ar
13 11 12 ar
14 3 13 1
15 13 19 1
16 10 14 1
17 15 23 1
18 13 18 1
19 19 21 1
20 18 20 1
21 22 24 1
22 16 23 1
23 22 23 1
24 17 24 1
25 20 24 1
26 21 24 1
@<TRIPOS>SUBSTRUCTURE
1	LIG1	1	GROUP	1 C	LIG
