# created with PyMOL 3.1.3.1
@<TRIPOS>MOLECULE
predicted
34 39 1                 
SMALL
USER_CHARGES
@<TRIPOS>ATOM
1	 O23	-10.742	2.412	-24.345	O.2	1	LIG1	0.000	
2	 O24	-8.753	0.656	-21.383	O.2	1	LIG1	0.000	
3	 N26	-6.274	-0.454	-17.893	N.2	1	LIG1	0.000	
4	 N27	-5.944	2.949	-24.119	N.pl3	1	LIG1	0.000	
5	 C28	-10.231	1.278	-24.165	C.2	1	LIG1	0.000	
6	 C29	-8.316	-0.380	-21.855	C.2	1	LIG1	0.000	
7	 C30	-6.955	-0.880	-18.937	C.2	1	LIG1	0.000	
8	 C31	-7.225	2.800	-24.016	C.2	1	LIG1	0.000	
9	 C32	-13.124	-0.746	-22.958	C.2	1	LIG1	0.000	
10	 C33	-12.397	0.288	-23.495	C.2	1	LIG1	0.000	
11	 C34	-11.085	-1.993	-22.500	C.2	1	LIG1	0.000	
12	 C35	-2.885	1.320	-20.812	C.2	1	LIG1	0.000	
13	 C36	-3.563	0.862	-21.923	C.2	1	LIG1	0.000	
14	 C37	-7.635	3.320	-22.841	C.2	1	LIG1	0.000	
15	 C38	-12.481	-1.888	-22.463	C.2	1	LIG1	0.000	
16	 C39	-11.006	0.179	-23.559	C.2	1	LIG1	0.000	
17	 C40	-10.346	-0.989	-23.128	C.2	1	LIG1	0.000	
18	 C41	-5.108	0.183	-18.057	C.2	1	LIG1	0.000	
19	 C42	-3.384	1.098	-19.538	C.2	1	LIG1	0.000	
20	 C43	-4.740	0.211	-21.768	C.2	1	LIG1	0.000	
21	 C44	-6.520	-0.673	-20.252	C.2	1	LIG1	0.000	
22	 C45	-6.484	3.769	-22.185	C.2	1	LIG1	0.000	
23	 C46	-4.581	0.434	-19.351	C.2	1	LIG1	0.000	
24	 C47	-5.283	-0.009	-20.484	C.2	1	LIG1	0.000	
25	 N48	-7.282	-1.081	-21.328	N.pl3	1	LIG1	0.000	
26	 N49	-8.881	1.075	-24.451	N.pl3	1	LIG1	0.000	
27	 N50	-5.498	3.533	-22.975	N.2	1	LIG1	0.000	
28	 C51	-8.106	2.123	-25.072	C.3	1	LIG1	0.000	
29	 C52	-8.160	-3.202	-24.246	C.3	1	LIG1	0.000	
30	 C53	-7.106	-2.327	-22.033	C.3	1	LIG1	0.000	
31	 C54	-8.273	-0.246	-24.339	C.3	1	LIG1	0.000	
32	 C55	-8.247	-2.405	-23.007	C.3	1	LIG1	0.000	
33	 C56	-8.843	-1.028	-23.126	C.3	1	LIG1	0.000	
34	 F25	-13.211	-2.860	-21.959	 F	1	LIG1	0.000	
@<TRIPOS>BOND
1 3 18 ar
2 1 5 2
3 5 16 1
4 2 6 2
5 6 33 1
6 3 7 ar
7 4 8 ar
8 8 14 ar
9 9 15 ar
10 9 10 ar
11 11 17 ar
12 12 13 ar
13 13 20 ar
14 14 22 ar
15 11 15 ar
16 15 34 1
17 10 16 ar
18 16 17 ar
19 18 23 ar
20 12 19 ar
21 20 24 ar
22 7 21 ar
23 21 24 ar
24 22 27 ar
25 19 23 ar
26 23 24 ar
27 6 25 1
28 21 25 1
29 5 26 1
30 26 28 1
31 4 27 ar
32 8 28 1
33 29 32 1
34 25 30 1
35 26 31 1
36 30 32 1
37 32 33 1
38 17 33 1
39 31 33 1
@<TRIPOS>SUBSTRUCTURE
1	LIG1	1	GROUP	1 C	LIG
