# created with PyMOL 3.1.3.1
@<TRIPOS>MOLECULE
predicted
40 45 1                 
SMALL
USER_CHARGES
@<TRIPOS>ATOM
1	CL30	-13.371	-3.188	-21.841	Cl	1	LIG1	0.000	
2	 O27	-10.870	2.439	-24.256	O.2	1	LIG1	0.000	
3	 O28	-6.019	2.183	-24.401	O.2	1	LIG1	0.000	
4	 O29	-8.708	0.672	-21.408	O.2	1	LIG1	0.000	
5	 N31	-7.719	-5.474	-28.400	N.2	1	LIG1	0.000	
6	 N32	-7.802	-3.786	-26.793	N.2	1	LIG1	0.000	
7	 N33	-6.309	-0.701	-17.936	N.2	1	LIG1	0.000	
8	 C34	-10.334	1.325	-24.124	C.2	1	LIG1	0.000	
9	 C35	-7.086	2.596	-24.097	C.2	1	LIG1	0.000	
10	 C36	-8.335	-0.365	-21.887	C.2	1	LIG1	0.000	
11	 C37	-7.680	-4.174	-28.036	C.2	1	LIG1	0.000	
12	 C38	-7.950	-6.391	-27.481	C.2	1	LIG1	0.000	
13	 C39	-7.002	-1.085	-18.997	C.2	1	LIG1	0.000	
14	 C40	-8.044	-4.699	-25.829	C.2	1	LIG1	0.000	
15	 C41	-8.087	-6.044	-26.111	C.2	1	LIG1	0.000	
16	 C42	-13.145	-0.787	-22.940	C.2	1	LIG1	0.000	
17	 C43	-12.452	0.256	-23.465	C.2	1	LIG1	0.000	
18	 C44	-11.076	-1.972	-22.530	C.2	1	LIG1	0.000	
19	 C45	-2.986	1.299	-20.789	C.2	1	LIG1	0.000	
20	 C46	-3.671	0.887	-21.919	C.2	1	LIG1	0.000	
21	 C47	-12.464	-1.910	-22.468	C.2	1	LIG1	0.000	
22	 C48	-11.073	0.205	-23.555	C.2	1	LIG1	0.000	
23	 C49	-10.389	-0.950	-23.138	C.2	1	LIG1	0.000	
24	 C50	-5.156	-0.051	-18.099	C.2	1	LIG1	0.000	
25	 C51	-3.471	0.988	-19.518	C.2	1	LIG1	0.000	
26	 C52	-4.835	0.192	-21.789	C.2	1	LIG1	0.000	
27	 C53	-6.563	-0.819	-20.307	C.2	1	LIG1	0.000	
28	 C54	-4.645	0.286	-19.368	C.2	1	LIG1	0.000	
29	 C55	-5.343	-0.106	-20.521	C.2	1	LIG1	0.000	
30	 N56	-7.303	3.257	-22.957	N.pl3	1	LIG1	0.000	
31	 N57	-8.207	-4.293	-24.568	N.pl3	1	LIG1	0.000	
32	 N58	-7.345	-1.157	-21.379	N.pl3	1	LIG1	0.000	
33	 N59	-9.001	1.185	-24.407	N.pl3	1	LIG1	0.000	
34	 C60	-6.247	3.604	-22.090	C.3	1	LIG1	0.000	
35	 C61	-8.280	2.296	-24.944	C.3	1	LIG1	0.000	
36	 C62	-8.428	-2.933	-24.370	C.3	1	LIG1	0.000	
37	 C63	-7.237	-2.383	-22.097	C.3	1	LIG1	0.000	
38	 C64	-8.384	-0.121	-24.378	C.3	1	LIG1	0.000	
39	 C65	-8.297	-2.340	-23.135	C.3	1	LIG1	0.000	
40	 C66	-8.882	-0.966	-23.163	C.3	1	LIG1	0.000	
@<TRIPOS>BOND
1 5 11 ar
2 7 24 ar
3 2 8 2
4 3 9 2
5 9 35 1
6 4 10 2
7 10 32 1
8 6 11 ar
9 5 12 ar
10 7 13 ar
11 6 14 ar
12 14 15 ar
13 12 15 ar
14 16 17 ar
15 17 22 ar
16 18 21 ar
17 19 20 ar
18 20 26 ar
19 1 21 1
20 16 21 ar
21 8 22 1
22 18 23 ar
23 22 23 ar
24 24 28 ar
25 19 25 ar
26 26 29 ar
27 13 27 ar
28 27 29 ar
29 25 28 ar
30 28 29 ar
31 9 30 1
32 14 31 1
33 27 32 1
34 32 37 1
35 8 33 1
36 33 38 1
37 30 34 1
38 33 35 1
39 31 36 1
40 37 39 1
41 38 40 1
42 36 39 1
43 10 40 1
44 23 40 1
45 39 40 1
@<TRIPOS>SUBSTRUCTURE
1	LIG1	1	GROUP	1 C	LIG
