# created with PyMOL 3.1.3.1
@<TRIPOS>MOLECULE
predicted
33 36 1                 
SMALL
USER_CHARGES
@<TRIPOS>ATOM
1	 C49	4.562	-3.201	25.432	C.3	1	LIG1	0.000	
2	 N47	5.568	-3.872	26.136	N.3	1	LIG1	0.000	
3	 C52	6.124	-3.353	27.377	C.3	1	LIG1	0.000	
4	 C51	5.204	-2.373	28.009	C.3	1	LIG1	0.000	
5	 C28	5.828	-0.992	28.008	C.3	1	LIG1	0.000	
6	 N23	4.957	0.013	28.452	N.3	1	LIG1	0.000	
7	 S55	6.606	-4.863	25.256	S.O2	1	LIG1	0.000	
8	 O25	5.936	-5.322	24.078	O.2	1	LIG1	0.000	
9	 O26	6.974	-5.950	26.104	O.2	1	LIG1	0.000	
10	 N48	7.840	-3.932	24.823	N.3	1	LIG1	0.000	
11	 C50	9.092	-3.899	25.546	C.3	1	LIG1	0.000	
12	 C38	10.199	-3.409	24.687	C.2	1	LIG1	0.000	
13	 C33	11.503	-3.502	25.200	C.2	1	LIG1	0.000	
14	 C32	12.567	-3.027	24.446	C.2	1	LIG1	0.000	
15	 C37	12.332	-2.467	23.200	C.2	1	LIG1	0.000	
16	CL27	13.659	-1.889	22.236	Cl	1	LIG1	0.000	
17	 C34	11.067	-2.399	22.695	C.2	1	LIG1	0.000	
18	 C39	9.972	-2.822	23.433	C.2	1	LIG1	0.000	
19	 C54	8.619	-2.813	22.888	C.3	1	LIG1	0.000	
20	 C30	8.203	-1.786	21.899	C.2	1	LIG1	0.000	
21	 O24	8.764	-0.719	21.779	O.2	1	LIG1	0.000	
22	 N46	7.146	-2.131	21.144	N.pl3	1	LIG1	0.000	
23	 C43	6.599	-1.290	20.141	C.2	1	LIG1	0.000	
24	 C31	7.087	-1.272	18.852	C.2	1	LIG1	0.000	
25	 N29	6.566	-0.545	17.877	N.2	1	LIG1	0.000	
26	 C40	5.496	0.199	18.085	C.2	1	LIG1	0.000	
27	 C44	4.909	0.277	19.368	C.2	1	LIG1	0.000	
28	 C41	3.793	1.087	19.616	C.2	1	LIG1	0.000	
29	 C35	3.249	1.111	20.886	C.2	1	LIG1	0.000	
30	 C36	3.788	0.376	21.914	C.2	1	LIG1	0.000	
31	 C42	4.871	-0.417	21.718	C.2	1	LIG1	0.000	
32	 C45	5.453	-0.480	20.420	C.2	1	LIG1	0.000	
33	 C53	7.639	-2.857	23.989	C.3	1	LIG1	0.000	
@<TRIPOS>BOND
1 1 2 1
2 2 3 1
3 2 7 1
4 3 4 1
5 4 5 1
6 5 6 1
7 7 8 2
8 7 9 2
9 7 10 1
10 10 11 1
11 10 33 1
12 11 12 1
13 12 13 ar
14 12 18 ar
15 13 14 ar
16 14 15 ar
17 15 16 1
18 15 17 ar
19 17 18 ar
20 18 19 1
21 19 20 1
22 19 33 1
23 20 21 2
24 20 22 1
25 22 23 1
26 23 24 ar
27 23 32 ar
28 24 25 ar
29 25 26 ar
30 26 27 ar
31 27 28 ar
32 27 32 ar
33 28 29 ar
34 29 30 ar
35 30 31 ar
36 31 32 ar
@<TRIPOS>SUBSTRUCTURE
1	LIG1	1	GROUP	1 C	LIG
