# created with PyMOL 3.1.3.1
@<TRIPOS>MOLECULE
predicted
33 37 1                 
SMALL
USER_CHARGES
@<TRIPOS>ATOM
1	 N22	-3.960	-7.798	-22.617	N.1	1	LIG1	0.000	
2	 C27	-4.944	-7.361	-22.936	C.1	1	LIG1	0.000	
3	 C50	-6.128	-6.661	-23.314	C.3	1	LIG1	0.000	
4	 C52	-5.776	-5.304	-23.959	C.3	1	LIG1	0.000	
5	 S54	-6.598	-4.827	-25.443	S.O2	1	LIG1	0.000	
6	 O24	-5.812	-3.788	-26.076	O.2	1	LIG1	0.000	
7	 O25	-6.841	-5.911	-26.331	O.2	1	LIG1	0.000	
8	 N46	-7.994	-4.131	-24.958	N.3	1	LIG1	0.000	
9	 C47	-9.292	-4.230	-25.636	C.3	1	LIG1	0.000	
10	 C37	-10.408	-3.932	-24.693	C.2	1	LIG1	0.000	
11	 C32	-11.721	-4.183	-25.134	C.2	1	LIG1	0.000	
12	 C31	-12.797	-3.918	-24.303	C.2	1	LIG1	0.000	
13	 C36	-12.580	-3.404	-23.055	C.2	1	LIG1	0.000	
14	CL26	-13.913	-3.087	-22.035	Cl	1	LIG1	0.000	
15	 C33	-11.320	-3.182	-22.614	C.2	1	LIG1	0.000	
16	 C38	-10.215	-3.389	-23.426	C.2	1	LIG1	0.000	
17	 C53	-8.850	-3.219	-22.954	C.3	1	LIG1	0.000	
18	 C29	-8.510	-2.181	-21.955	C.2	1	LIG1	0.000	
19	 O23	-9.134	-1.149	-21.837	O.2	1	LIG1	0.000	
20	 N45	-7.455	-2.515	-21.169	N.pl3	1	LIG1	0.000	
21	 C42	-6.944	-1.685	-20.142	C.2	1	LIG1	0.000	
22	 C30	-7.459	-1.702	-18.862	C.2	1	LIG1	0.000	
23	 N28	-6.985	-0.980	-17.853	N.2	1	LIG1	0.000	
24	 C39	-5.916	-0.217	-18.043	C.2	1	LIG1	0.000	
25	 C43	-5.297	-0.136	-19.309	C.2	1	LIG1	0.000	
26	 C40	-4.201	0.676	-19.526	C.2	1	LIG1	0.000	
27	 C34	-3.605	0.711	-20.765	C.2	1	LIG1	0.000	
28	 C35	-4.101	-0.035	-21.812	C.2	1	LIG1	0.000	
29	 C41	-5.187	-0.834	-21.649	C.2	1	LIG1	0.000	
30	 C44	-5.805	-0.898	-20.378	C.2	1	LIG1	0.000	
31	 C51	-7.900	-3.061	-24.103	C.3	1	LIG1	0.000	
32	 C48	-7.234	-7.489	-23.606	C.3	1	LIG1	0.000	
33	 C49	-7.156	-6.760	-22.292	C.3	1	LIG1	0.000	
@<TRIPOS>BOND
1 1 2 3
2 2 3 1
3 3 4 1
4 3 32 1
5 3 33 1
6 4 5 1
7 5 6 2
8 5 7 2
9 5 8 1
10 8 9 1
11 8 31 1
12 9 10 1
13 10 11 ar
14 10 16 ar
15 11 12 ar
16 12 13 ar
17 13 14 1
18 13 15 ar
19 15 16 ar
20 16 17 1
21 17 18 1
22 17 31 1
23 18 19 2
24 18 20 1
25 20 21 1
26 21 22 ar
27 21 30 ar
28 22 23 ar
29 23 24 ar
30 24 25 ar
31 25 26 ar
32 25 30 ar
33 26 27 ar
34 27 28 ar
35 28 29 ar
36 29 30 ar
37 32 33 1
@<TRIPOS>SUBSTRUCTURE
1	LIG1	1	GROUP	1 C	LIG
