# created with PyMOL 3.1.3.1
@<TRIPOS>MOLECULE
predicted
33 36 1                 
SMALL
USER_CHARGES
@<TRIPOS>ATOM
1	 C50	4.094	-6.527	24.955	C.3	1	LIG1	0.000	
2	 N49	4.739	-5.368	25.526	N.pl3	1	LIG1	0.000	
3	 C31	5.791	-4.913	24.992	C.2	1	LIG1	0.000	
4	 O25	6.204	-5.375	23.964	O.2	1	LIG1	0.000	
5	 C51	6.493	-3.736	25.641	C.3	1	LIG1	0.000	
6	 N56	7.635	-3.511	24.834	N.3	1	LIG1	0.000	
7	 C52	8.915	-3.464	25.575	C.3	1	LIG1	0.000	
8	 C39	10.078	-3.141	24.652	C.2	1	LIG1	0.000	
9	 C35	11.380	-3.294	25.152	C.2	1	LIG1	0.000	
10	 C34	12.470	-3.007	24.363	C.2	1	LIG1	0.000	
11	 C38	12.260	-2.532	23.078	C.2	1	LIG1	0.000	
12	CL29	13.615	-2.186	22.144	Cl	1	LIG1	0.000	
13	 C36	10.994	-2.382	22.581	C.2	1	LIG1	0.000	
14	 C40	9.872	-2.621	23.365	C.2	1	LIG1	0.000	
15	 C55	8.489	-2.547	22.845	C.3	1	LIG1	0.000	
16	 C32	8.142	-1.565	21.789	C.2	1	LIG1	0.000	
17	 O26	8.726	-0.525	21.624	O.2	1	LIG1	0.000	
18	 N48	7.072	-1.985	21.053	N.pl3	1	LIG1	0.000	
19	 C45	6.515	-1.175	20.002	C.2	1	LIG1	0.000	
20	 C33	6.992	-1.223	18.718	C.2	1	LIG1	0.000	
21	 N30	6.468	-0.534	17.694	N.2	1	LIG1	0.000	
22	 C42	5.390	0.212	17.899	C.2	1	LIG1	0.000	
23	 C46	4.815	0.336	19.199	C.2	1	LIG1	0.000	
24	 C43	3.712	1.117	19.464	C.2	1	LIG1	0.000	
25	 C41	3.184	1.195	20.744	C.2	1	LIG1	0.000	
26	 S57	1.785	2.156	21.064	S.O2	1	LIG1	0.000	
27	 C54	2.304	3.829	21.089	C.3	1	LIG1	0.000	
28	 O27	1.275	1.775	22.377	O.2	1	LIG1	0.000	
29	 O28	0.823	1.906	20.039	O.2	1	LIG1	0.000	
30	 C37	3.763	0.485	21.795	C.2	1	LIG1	0.000	
31	 C44	4.838	-0.288	21.565	C.2	1	LIG1	0.000	
32	 C47	5.378	-0.372	20.275	C.2	1	LIG1	0.000	
33	 C53	7.502	-2.413	23.974	C.3	1	LIG1	0.000	
@<TRIPOS>BOND
1 1 2 1
2 2 3 1
3 3 4 2
4 3 5 1
5 5 6 1
6 6 7 1
7 6 33 1
8 7 8 1
9 8 9 ar
10 8 14 ar
11 9 10 ar
12 10 11 ar
13 11 12 1
14 11 13 ar
15 13 14 ar
16 14 15 1
17 15 16 1
18 15 33 1
19 16 17 2
20 16 18 1
21 18 19 1
22 19 20 ar
23 19 32 ar
24 20 21 ar
25 21 22 ar
26 22 23 ar
27 23 24 ar
28 23 32 ar
29 24 25 ar
30 25 26 1
31 25 30 ar
32 26 27 1
33 26 28 2
34 26 29 2
35 30 31 ar
36 31 32 ar
@<TRIPOS>SUBSTRUCTURE
1	LIG1	1	GROUP	1 C	LIG
