# created with PyMOL 3.1.3.1
@<TRIPOS>MOLECULE
predicted
27 30 1                 
SMALL
USER_CHARGES
@<TRIPOS>ATOM
1	 C40	-8.218	-2.798	-23.238	C.3	1	LIG1	0.000	
2	 C42	-8.523	-1.321	-23.084	C.3	1	LIG1	0.000	
3	 C22	-8.000	-0.770	-21.767	C.2	1	LIG1	0.000	
4	 O17	-8.573	0.160	-21.206	O.2	1	LIG1	0.000	
5	 N38	-6.815	-1.253	-21.321	N.pl3	1	LIG1	0.000	
6	 C35	-6.200	-0.762	-20.169	C.2	1	LIG1	0.000	
7	 C23	-6.753	-0.896	-18.893	C.2	1	LIG1	0.000	
8	 N21	-6.186	-0.414	-17.808	N.2	1	LIG1	0.000	
9	 C32	-5.039	0.238	-17.877	C.2	1	LIG1	0.000	
10	 C36	-4.403	0.423	-19.131	C.2	1	LIG1	0.000	
11	 C33	-3.220	1.104	-19.238	C.2	1	LIG1	0.000	
12	 C27	-2.619	1.249	-20.480	C.2	1	LIG1	0.000	
13	 C28	-3.188	0.737	-21.609	C.2	1	LIG1	0.000	
14	 C34	-4.358	0.074	-21.542	C.2	1	LIG1	0.000	
15	 C37	-4.991	-0.091	-20.295	C.2	1	LIG1	0.000	
16	 C41	-7.779	-0.577	-24.229	C.3	1	LIG1	0.000	
17	 N39	-8.113	0.851	-24.231	N.3	1	LIG1	0.000	
18	 S43	-9.644	1.141	-24.690	S.O2	1	LIG1	0.000	
19	 O18	-9.703	0.884	-26.131	O.2	1	LIG1	0.000	
20	 O19	-9.964	2.486	-24.235	O.2	1	LIG1	0.000	
21	 C31	-10.594	-0.045	-23.842	C.2	1	LIG1	0.000	
22	 C26	-11.981	0.116	-23.900	C.2	1	LIG1	0.000	
23	 C24	-12.775	-0.798	-23.270	C.2	1	LIG1	0.000	
24	 C29	-12.199	-1.869	-22.582	C.2	1	LIG1	0.000	
25	CL20	-13.178	-2.998	-21.870	Cl	1	LIG1	0.000	
26	 C25	-10.834	-2.023	-22.503	C.2	1	LIG1	0.000	
27	 C30	-9.992	-1.145	-23.177	C.2	1	LIG1	0.000	
@<TRIPOS>BOND
1 1 2 1
2 2 3 1
3 2 16 1
4 2 27 1
5 3 4 2
6 3 5 1
7 5 6 1
8 6 7 ar
9 6 15 ar
10 7 8 ar
11 8 9 ar
12 9 10 ar
13 10 11 ar
14 10 15 ar
15 11 12 ar
16 12 13 ar
17 13 14 ar
18 14 15 ar
19 16 17 1
20 17 18 1
21 18 19 2
22 18 20 2
23 18 21 1
24 21 22 ar
25 21 27 ar
26 22 23 ar
27 23 24 ar
28 24 25 1
29 24 26 ar
30 26 27 ar
@<TRIPOS>SUBSTRUCTURE
1	LIG1	1	GROUP	1 C	LIG
