# created with PyMOL 3.1.3.1
@<TRIPOS>MOLECULE
predicted
21 23 1                 
SMALL
USER_CHARGES
@<TRIPOS>ATOM
1	 O13	7.295	-0.650	23.849	O.2	1	LIG1	0.000	
2	 C17	7.723	-1.134	22.874	C.2	1	LIG1	0.000	
3	 C33	8.966	-1.976	22.998	C.3	1	LIG1	0.000	
4	 C25	10.225	-1.107	22.967	C.2	1	LIG1	0.000	
5	 C22	10.276	0.068	23.715	C.2	1	LIG1	0.000	
6	 C20	11.406	0.843	23.698	C.2	1	LIG1	0.000	
7	 C21	12.462	0.485	22.934	C.2	1	LIG1	0.000	
8	 C24	12.386	-0.686	22.178	C.2	1	LIG1	0.000	
9	CL14	13.694	-1.194	21.218	Cl	1	LIG1	0.000	
10	 C23	11.269	-1.476	22.201	C.2	1	LIG1	0.000	
11	 N32	7.181	-0.972	21.624	N.pl3	1	LIG1	0.000	
12	 C29	6.064	-0.179	21.363	C.2	1	LIG1	0.000	
13	 C19	5.194	0.183	22.322	C.2	1	LIG1	0.000	
14	 N15	4.106	0.898	22.088	N.2	1	LIG1	0.000	
15	 C26	3.840	1.313	20.867	C.2	1	LIG1	0.000	
16	 C30	4.682	1.021	19.793	C.2	1	LIG1	0.000	
17	 C28	4.435	1.442	18.495	C.2	1	LIG1	0.000	
18	 C18	5.332	1.062	17.495	C.2	1	LIG1	0.000	
19	 N16	6.396	0.347	17.727	N.2	1	LIG1	0.000	
20	 C27	6.650	-0.071	18.951	C.2	1	LIG1	0.000	
21	 C31	5.816	0.237	20.045	C.2	1	LIG1	0.000	
@<TRIPOS>BOND
1 1 2 2
2 2 3 1
3 2 11 1
4 3 4 1
5 4 5 ar
6 4 10 ar
7 5 6 ar
8 6 7 ar
9 7 8 ar
10 8 9 1
11 8 10 ar
12 11 12 1
13 12 13 ar
14 12 21 ar
15 13 14 ar
16 14 15 ar
17 15 16 ar
18 16 17 ar
19 16 21 ar
20 17 18 ar
21 18 19 ar
22 19 20 ar
23 20 21 ar
@<TRIPOS>SUBSTRUCTURE
1	LIG1	1	GROUP	1 C	LIG
