# created with PyMOL 3.1.3.1
@<TRIPOS>MOLECULE
predicted
28 31 1                 
SMALL
USER_CHARGES
@<TRIPOS>ATOM
1	 C43	6.996	-5.112	20.255	C.3	1	LIG1	0.000	
2	 C45	7.086	-3.713	20.163	C.3	1	LIG1	0.000	
3	 C25	7.421	-2.873	21.379	C.2	1	LIG1	0.000	
4	 O20	7.524	-3.451	22.396	O.2	1	LIG1	0.000	
5	 N42	7.624	-1.524	21.168	N.pl3	1	LIG1	0.000	
6	 C26	8.543	-0.744	21.900	C.2	1	LIG1	0.000	
7	 O21	8.873	0.337	21.458	O.2	1	LIG1	0.000	
8	 C47	9.001	-1.170	23.204	C.3	1	LIG1	0.000	
9	 C46	8.346	-0.452	24.333	C.3	1	LIG1	0.000	
10	 C44	8.776	-0.886	25.618	C.3	1	LIG1	0.000	
11	 O24	10.181	-1.131	25.742	O.3	1	LIG1	0.000	
12	 C34	10.915	-1.612	24.691	C.2	1	LIG1	0.000	
13	 C29	12.207	-2.017	24.947	C.2	1	LIG1	0.000	
14	 C28	12.991	-2.445	23.917	C.2	1	LIG1	0.000	
15	 C33	12.487	-2.462	22.609	C.2	1	LIG1	0.000	
16	CL22	13.492	-2.976	21.328	Cl	1	LIG1	0.000	
17	 C30	11.201	-2.072	22.350	C.2	1	LIG1	0.000	
18	 C35	10.393	-1.586	23.374	C.2	1	LIG1	0.000	
19	 C39	6.880	-0.921	20.102	C.2	1	LIG1	0.000	
20	 C27	7.319	-0.847	18.795	C.2	1	LIG1	0.000	
21	 N23	6.624	-0.279	17.813	N.2	1	LIG1	0.000	
22	 C36	5.417	0.201	18.051	C.2	1	LIG1	0.000	
23	 C40	4.865	0.165	19.351	C.2	1	LIG1	0.000	
24	 C37	3.622	0.688	19.612	C.2	1	LIG1	0.000	
25	 C31	3.099	0.616	20.892	C.2	1	LIG1	0.000	
26	 C32	3.802	0.027	21.914	C.2	1	LIG1	0.000	
27	 C38	5.021	-0.493	21.682	C.2	1	LIG1	0.000	
28	 C41	5.577	-0.425	20.380	C.2	1	LIG1	0.000	
@<TRIPOS>BOND
1 1 2 1
2 2 3 1
3 3 4 2
4 3 5 1
5 5 6 1
6 5 19 1
7 6 7 2
8 6 8 1
9 8 9 1
10 8 18 1
11 9 10 1
12 10 11 1
13 11 12 1
14 12 13 ar
15 12 18 ar
16 13 14 ar
17 14 15 ar
18 15 16 1
19 15 17 ar
20 17 18 ar
21 19 20 ar
22 19 28 ar
23 20 21 ar
24 21 22 ar
25 22 23 ar
26 23 24 ar
27 23 28 ar
28 24 25 ar
29 25 26 ar
30 26 27 ar
31 27 28 ar
@<TRIPOS>SUBSTRUCTURE
1	LIG1	1	GROUP	1 C	LIG
