# created with PyMOL 3.1.3.1
@<TRIPOS>MOLECULE
predicted
30 33 1                 
SMALL
USER_CHARGES
@<TRIPOS>ATOM
1	 C48	-5.961	-7.157	-28.852	C.3	1	LIG1	0.000	
2	 N45	-6.613	-6.950	-27.619	N.pl3	1	LIG1	0.000	
3	 C26	-6.760	-5.655	-27.094	C.2	1	LIG1	0.000	
4	 O21	-6.366	-4.678	-27.690	O.2	1	LIG1	0.000	
5	 N44	-7.373	-5.634	-25.915	N.pl3	1	LIG1	0.000	
6	 C37	-7.673	-4.473	-25.197	C.2	1	LIG1	0.000	
7	 C30	-7.292	-3.183	-25.576	C.2	1	LIG1	0.000	
8	 C32	-7.643	-2.100	-24.811	C.2	1	LIG1	0.000	
9	 C38	-8.351	-2.283	-23.658	C.2	1	LIG1	0.000	
10	 N46	-8.694	-1.155	-22.863	N.pl3	1	LIG1	0.000	
11	 C49	-9.816	-0.363	-23.386	C.3	1	LIG1	0.000	
12	 C39	-11.105	-1.085	-23.315	C.2	1	LIG1	0.000	
13	 C34	-12.024	-1.099	-24.309	C.2	1	LIG1	0.000	
14	 C28	-13.110	-1.896	-24.042	C.2	1	LIG1	0.000	
15	 S25	-12.996	-2.620	-22.502	S.2	1	LIG1	0.000	
16	 C29	-11.457	-1.867	-22.229	C.2	1	LIG1	0.000	
17	 C27	-8.128	-0.794	-21.686	C.2	1	LIG1	0.000	
18	 O22	-8.494	0.241	-21.129	O.2	1	LIG1	0.000	
19	 C50	-7.108	-1.675	-21.088	C.3	1	LIG1	0.000	
20	 N47	-6.426	-0.969	-19.968	N.2	1	LIG1	0.000	
21	 N24	-6.792	-1.070	-18.700	N.2	1	LIG1	0.000	
22	 N23	-6.001	-0.328	-17.982	N.2	1	LIG1	0.000	
23	 C42	-5.081	0.246	-18.767	C.2	1	LIG1	0.000	
24	 C40	-4.043	1.114	-18.558	C.2	1	LIG1	0.000	
25	 C35	-3.296	1.574	-19.633	C.2	1	LIG1	0.000	
26	 C36	-3.592	1.186	-20.933	C.2	1	LIG1	0.000	
27	 C41	-4.651	0.324	-21.188	C.2	1	LIG1	0.000	
28	 C43	-5.369	-0.157	-20.104	C.2	1	LIG1	0.000	
29	 C33	-8.720	-3.551	-23.273	C.2	1	LIG1	0.000	
30	 C31	-8.381	-4.638	-24.015	C.2	1	LIG1	0.000	
@<TRIPOS>BOND
1 1 2 1
2 2 3 1
3 3 4 2
4 3 5 1
5 5 6 1
6 6 7 ar
7 6 30 ar
8 7 8 ar
9 8 9 ar
10 9 10 1
11 9 29 ar
12 10 11 1
13 10 17 1
14 11 12 1
15 12 13 ar
16 12 16 ar
17 13 14 ar
18 14 15 ar
19 15 16 ar
20 17 18 2
21 17 19 1
22 19 20 1
23 20 21 ar
24 20 28 ar
25 21 22 ar
26 22 23 ar
27 23 24 ar
28 23 28 ar
29 24 25 ar
30 25 26 ar
31 26 27 ar
32 27 28 ar
33 29 30 ar
@<TRIPOS>SUBSTRUCTURE
1	LIG1	1	GROUP	1 C	LIG
