# created with PyMOL 3.1.3.1
@<TRIPOS>MOLECULE
predicted
15 16 1                 
SMALL
USER_CHARGES
@<TRIPOS>ATOM
1	 C21	1.478	-20.454	9.260	C.2	1	LIG1	0.000	
2	 C22	2.019	-19.372	8.567	C.2	1	LIG1	0.000	
3	 C24	1.457	-18.110	8.672	C.2	1	LIG1	0.000	
4	 C26	0.395	-17.912	9.477	C.2	1	LIG1	0.000	
5	 S20	-0.323	-16.271	9.600	S.3	1	LIG1	0.000	
6	 C29	-1.895	-16.321	8.741	C.3	1	LIG1	0.000	
7	 C32	-1.851	-15.709	7.395	C.3	1	LIG1	0.000	
8	 N33	-3.189	-15.147	7.168	N.3	1	LIG1	0.000	
9	 C30	-4.036	-16.087	6.468	C.3	1	LIG1	0.000	
10	 C27	-5.406	-15.510	6.321	C.3	1	LIG1	0.000	
11	 O19	-5.337	-14.223	5.705	O.3	1	LIG1	0.000	
12	 C28	-4.477	-13.303	6.388	C.3	1	LIG1	0.000	
13	 C31	-3.116	-13.849	6.542	C.3	1	LIG1	0.000	
14	 C25	-0.168	-18.953	10.178	C.2	1	LIG1	0.000	
15	 C23	0.389	-20.218	10.087	C.2	1	LIG1	0.000	
@<TRIPOS>BOND
1 1 2 ar
2 1 15 ar
3 2 3 ar
4 3 4 ar
5 4 5 1
6 4 14 ar
7 5 6 1
8 6 7 1
9 7 8 1
10 8 9 1
11 8 13 1
12 9 10 1
13 10 11 1
14 11 12 1
15 12 13 1
16 14 15 ar
@<TRIPOS>SUBSTRUCTURE
1	LIG1	1	GROUP	1 C	LIG
