# created with PyMOL 3.1.3.1
@<TRIPOS>MOLECULE
predicted
26 29 1                 
SMALL
USER_CHARGES
@<TRIPOS>ATOM
1	 N45	-8.062	-3.736	-23.660	N.1	1	LIG1	0.000	
2	 C43	-8.185	-2.665	-23.419	C.1	1	LIG1	0.000	
3	 C44	-8.512	-1.246	-23.184	C.3	1	LIG1	0.000	
4	 C24	-8.038	-0.748	-21.836	C.2	1	LIG1	0.000	
5	 O20	-8.619	0.154	-21.255	O.2	1	LIG1	0.000	
6	 N40	-6.913	-1.249	-21.337	N.pl3	1	LIG1	0.000	
7	 C37	-6.307	-0.764	-20.156	C.2	1	LIG1	0.000	
8	 C25	-6.870	-0.928	-18.898	C.2	1	LIG1	0.000	
9	 N22	-6.323	-0.455	-17.774	N.2	1	LIG1	0.000	
10	 C34	-5.197	0.205	-17.824	C.2	1	LIG1	0.000	
11	 C38	-4.536	0.416	-19.059	C.2	1	LIG1	0.000	
12	 C35	-3.367	1.105	-19.132	C.2	1	LIG1	0.000	
13	 C29	-2.749	1.272	-20.352	C.2	1	LIG1	0.000	
14	 C30	-3.294	0.767	-21.502	C.2	1	LIG1	0.000	
15	 C36	-4.461	0.092	-21.485	C.2	1	LIG1	0.000	
16	 C39	-5.102	-0.084	-20.242	C.2	1	LIG1	0.000	
17	 C42	-7.761	-0.425	-24.258	C.3	1	LIG1	0.000	
18	 C41	-8.380	0.872	-24.517	C.3	1	LIG1	0.000	
19	 O23	-9.739	0.735	-24.897	O.3	1	LIG1	0.000	
20	 C32	-10.541	-0.048	-24.102	C.2	1	LIG1	0.000	
21	 C27	-11.884	0.130	-24.204	C.2	1	LIG1	0.000	
22	 C26	-12.727	-0.694	-23.512	C.2	1	LIG1	0.000	
23	 C31	-12.225	-1.726	-22.707	C.2	1	LIG1	0.000	
24	CL21	-13.309	-2.762	-21.885	Cl	1	LIG1	0.000	
25	 C28	-10.882	-1.910	-22.581	C.2	1	LIG1	0.000	
26	 C33	-9.988	-1.099	-23.299	C.2	1	LIG1	0.000	
@<TRIPOS>BOND
1 1 2 3
2 2 3 1
3 3 4 1
4 3 17 1
5 3 26 1
6 4 5 2
7 4 6 1
8 6 7 1
9 7 8 ar
10 7 16 ar
11 8 9 ar
12 9 10 ar
13 10 11 ar
14 11 12 ar
15 11 16 ar
16 12 13 ar
17 13 14 ar
18 14 15 ar
19 15 16 ar
20 17 18 1
21 18 19 1
22 19 20 1
23 20 21 ar
24 20 26 ar
25 21 22 ar
26 22 23 ar
27 23 24 1
28 23 25 ar
29 25 26 ar
@<TRIPOS>SUBSTRUCTURE
1	LIG1	1	GROUP	1 C	LIG
