# created with PyMOL 3.1.3.1
@<TRIPOS>MOLECULE
predicted
19 21 1                 
SMALL
USER_CHARGES
@<TRIPOS>ATOM
1	 C35	8.598	-4.301	26.522	C.3	1	LIG1	0.000	
2	 N38	8.044	-3.301	25.670	N.3	1	LIG1	0.000	
3	 C36	9.026	-2.232	25.231	C.3	1	LIG1	0.000	
4	 C33	8.406	-1.141	24.392	C.3	1	LIG1	0.000	
5	 N30	7.614	-1.701	23.350	N.pl3	1	LIG1	0.000	
6	 C22	7.538	-1.205	22.066	C.2	1	LIG1	0.000	
7	 O20	8.286	-0.300	21.646	O.2	1	LIG1	0.000	
8	 C32	6.481	-1.793	21.242	C.3	1	LIG1	0.000	
9	 C26	6.272	-1.154	19.919	C.2	1	LIG1	0.000	
10	 C27	6.999	-1.452	18.830	C.2	1	LIG1	0.000	
11	 N31	6.606	-0.712	17.804	N.pl3	1	LIG1	0.000	
12	 C29	5.605	0.062	18.207	C.2	1	LIG1	0.000	
13	 N21	4.882	0.971	17.563	N.2	1	LIG1	0.000	
14	 C23	3.891	1.624	18.214	C.2	1	LIG1	0.000	
15	 C24	3.614	1.419	19.523	C.2	1	LIG1	0.000	
16	 C25	4.365	0.514	20.224	C.2	1	LIG1	0.000	
17	 C28	5.353	-0.188	19.562	C.2	1	LIG1	0.000	
18	 C34	6.717	-2.786	23.768	C.3	1	LIG1	0.000	
19	 C37	7.412	-3.880	24.480	C.3	1	LIG1	0.000	
@<TRIPOS>BOND
1 1 2 1
2 2 3 1
3 2 19 1
4 3 4 1
5 4 5 1
6 5 6 1
7 5 18 1
8 6 7 2
9 6 8 1
10 8 9 1
11 9 10 ar
12 9 17 ar
13 10 11 ar
14 11 12 ar
15 12 13 ar
16 12 17 ar
17 13 14 ar
18 14 15 ar
19 15 16 ar
20 16 17 ar
21 18 19 1
@<TRIPOS>SUBSTRUCTURE
1	LIG1	1	GROUP	1 C	LIG
