# created with PyMOL 3.1.3.1
@<TRIPOS>MOLECULE
predicted
19 21 1                 
SMALL
USER_CHARGES
@<TRIPOS>ATOM
1	 C33	7.482	-2.652	19.038	C.3	1	LIG1	0.000	
2	 C19	6.843	-3.336	20.241	C.3	1	LIG1	0.000	
3	 O18	6.037	-4.211	20.080	O.3	1	LIG1	0.000	
4	 N32	7.137	-2.914	21.498	N.3	1	LIG1	0.000	
5	 C34	6.627	-3.594	22.644	C.3	1	LIG1	0.000	
6	 C29	7.604	-3.686	23.818	C.2	1	LIG1	0.000	
7	 C25	7.337	-4.601	24.839	C.2	1	LIG1	0.000	
8	 C21	8.196	-4.672	25.964	C.2	1	LIG1	0.000	
9	 C24	9.287	-3.849	26.054	C.2	1	LIG1	0.000	
10	 C28	9.538	-2.969	25.012	C.2	1	LIG1	0.000	
11	 C31	8.722	-2.863	23.904	C.2	1	LIG1	0.000	
12	 C36	9.031	-1.994	22.784	C.3	1	LIG1	0.000	
13	 C30	10.134	-1.002	22.903	C.2	1	LIG1	0.000	
14	 C26	9.955	0.220	23.540	C.2	1	LIG1	0.000	
15	 C22	11.022	1.109	23.684	C.2	1	LIG1	0.000	
16	 C20	12.285	0.785	23.156	C.2	1	LIG1	0.000	
17	 C23	12.450	-0.425	22.490	C.2	1	LIG1	0.000	
18	 C27	11.373	-1.305	22.326	C.2	1	LIG1	0.000	
19	 C35	8.049	-1.810	21.752	C.3	1	LIG1	0.000	
@<TRIPOS>BOND
1 1 2 1
2 2 3 1
3 2 4 1
4 4 5 1
5 4 19 1
6 5 6 1
7 6 7 ar
8 6 11 ar
9 7 8 ar
10 8 9 ar
11 9 10 ar
12 10 11 ar
13 11 12 1
14 12 13 1
15 12 19 1
16 13 14 ar
17 13 18 ar
18 14 15 ar
19 15 16 ar
20 16 17 ar
21 17 18 ar
@<TRIPOS>SUBSTRUCTURE
1	LIG1	1	GROUP	1 C	LIG
