# created with PyMOL 3.1.3.1
@<TRIPOS>MOLECULE
predicted
31 34 1                 
SMALL
USER_CHARGES
@<TRIPOS>ATOM
1	 N22	3.424	-7.533	22.170	N.3	1	LIG1	0.000	
2	 C26	4.030	-6.910	23.316	C.3	1	LIG1	0.000	
3	 C47	5.486	-6.735	23.080	C.3	1	LIG1	0.000	
4	 N46	6.084	-5.968	24.171	N.pl3	1	LIG1	0.000	
5	 C28	5.879	-4.665	24.264	C.2	1	LIG1	0.000	
6	 O23	5.312	-4.082	23.395	O.2	1	LIG1	0.000	
7	 C48	6.558	-3.909	25.364	C.3	1	LIG1	0.000	
8	 N52	7.662	-3.377	24.784	N.3	1	LIG1	0.000	
9	 C49	8.901	-3.344	25.514	C.3	1	LIG1	0.000	
10	 C37	10.076	-2.981	24.633	C.2	1	LIG1	0.000	
11	 C32	11.357	-3.144	25.148	C.2	1	LIG1	0.000	
12	 C31	12.446	-2.823	24.382	C.2	1	LIG1	0.000	
13	 C36	12.243	-2.309	23.115	C.2	1	LIG1	0.000	
14	CL25	13.597	-1.901	22.173	Cl	1	LIG1	0.000	
15	 C33	11.002	-2.156	22.611	C.2	1	LIG1	0.000	
16	 C38	9.889	-2.421	23.371	C.2	1	LIG1	0.000	
17	 C51	8.519	-2.329	22.828	C.3	1	LIG1	0.000	
18	 C29	8.161	-1.341	21.824	C.2	1	LIG1	0.000	
19	 O24	8.719	-0.291	21.675	O.2	1	LIG1	0.000	
20	 N45	7.110	-1.760	21.070	N.pl3	1	LIG1	0.000	
21	 C42	6.542	-0.989	20.028	C.2	1	LIG1	0.000	
22	 C30	6.988	-1.085	18.739	C.2	1	LIG1	0.000	
23	 N27	6.450	-0.433	17.729	N.2	1	LIG1	0.000	
24	 C39	5.380	0.316	17.915	C.2	1	LIG1	0.000	
25	 C43	4.830	0.483	19.195	C.2	1	LIG1	0.000	
26	 C40	3.725	1.298	19.419	C.2	1	LIG1	0.000	
27	 C34	3.218	1.424	20.684	C.2	1	LIG1	0.000	
28	 C35	3.789	0.768	21.745	C.2	1	LIG1	0.000	
29	 C41	4.869	-0.031	21.574	C.2	1	LIG1	0.000	
30	 C44	5.408	-0.192	20.276	C.2	1	LIG1	0.000	
31	 C50	7.520	-2.258	23.973	C.3	1	LIG1	0.000	
@<TRIPOS>BOND
1 1 2 1
2 2 3 1
3 3 4 1
4 4 5 1
5 5 6 2
6 5 7 1
7 7 8 1
8 8 9 1
9 8 31 1
10 9 10 1
11 10 11 ar
12 10 16 ar
13 11 12 ar
14 12 13 ar
15 13 14 1
16 13 15 ar
17 15 16 ar
18 16 17 1
19 17 18 1
20 17 31 1
21 18 19 2
22 18 20 1
23 20 21 1
24 21 22 ar
25 21 30 ar
26 22 23 ar
27 23 24 ar
28 24 25 ar
29 25 26 ar
30 25 30 ar
31 26 27 ar
32 27 28 ar
33 28 29 ar
34 29 30 ar
@<TRIPOS>SUBSTRUCTURE
1	LIG1	1	GROUP	1 C	LIG
