# created with PyMOL 3.1.3.1
@<TRIPOS>MOLECULE
predicted
18 19 1                 
SMALL
USER_CHARGES
@<TRIPOS>ATOM
1	 C30	7.135	-2.829	18.844	C.3	1	LIG1	0.000	
2	 C21	6.421	-3.714	19.842	C.3	1	LIG1	0.000	
3	 O18	5.730	-4.651	19.508	O.3	1	LIG1	0.000	
4	 N28	6.582	-3.363	21.116	N.pl3	1	LIG1	0.000	
5	 C27	6.032	-4.011	22.219	C.2	1	LIG1	0.000	
6	 C24	5.345	-5.216	22.120	C.2	1	LIG1	0.000	
7	 C22	4.823	-5.786	23.258	C.2	1	LIG1	0.000	
8	 C23	4.993	-5.167	24.457	C.2	1	LIG1	0.000	
9	 C26	5.679	-3.996	24.482	C.2	1	LIG1	0.000	
10	 C20	5.822	-3.327	25.807	C.2	1	LIG1	0.000	
11	 O17	5.098	-2.381	26.019	O.2	1	LIG1	0.000	
12	 N29	6.762	-3.754	26.655	N.pl3	1	LIG1	0.000	
13	 C33	7.029	-3.018	27.830	C.3	1	LIG1	0.000	
14	 C31	8.381	-2.355	27.685	C.3	1	LIG1	0.000	
15	 S19	9.603	-3.614	27.541	S.3	1	LIG1	0.000	
16	 C32	8.991	-4.540	26.209	C.3	1	LIG1	0.000	
17	 C34	7.568	-4.938	26.457	C.3	1	LIG1	0.000	
18	 C25	6.191	-3.396	23.434	C.2	1	LIG1	0.000	
@<TRIPOS>BOND
1 1 2 1
2 2 3 1
3 2 4 1
4 4 5 1
5 5 6 ar
6 5 18 ar
7 6 7 ar
8 7 8 ar
9 8 9 ar
10 9 10 1
11 9 18 ar
12 10 11 2
13 10 12 1
14 12 13 1
15 12 17 1
16 13 14 1
17 14 15 1
18 15 16 1
19 16 17 1
@<TRIPOS>SUBSTRUCTURE
1	LIG1	1	GROUP	1 C	LIG
