# created with PyMOL 3.1.3.1
@<TRIPOS>MOLECULE
predicted
31 35 1                 
SMALL
USER_CHARGES
@<TRIPOS>ATOM
1	 O22	8.637	-0.379	21.675	O.2	1	LIG1	0.000	
2	 C27	8.051	-1.408	21.898	C.2	1	LIG1	0.000	
3	 N43	6.988	-1.827	21.159	N.pl3	1	LIG1	0.000	
4	 C40	6.440	-1.053	20.082	C.2	1	LIG1	0.000	
5	 C28	6.962	-1.102	18.803	C.2	1	LIG1	0.000	
6	 N26	6.460	-0.451	17.755	N.2	1	LIG1	0.000	
7	 C37	5.374	0.286	17.894	C.2	1	LIG1	0.000	
8	 C41	4.750	0.426	19.157	C.2	1	LIG1	0.000	
9	 C38	3.633	1.225	19.337	C.2	1	LIG1	0.000	
10	 C32	3.047	1.308	20.581	C.2	1	LIG1	0.000	
11	 C33	3.567	0.636	21.673	C.2	1	LIG1	0.000	
12	 C39	4.674	-0.153	21.557	C.2	1	LIG1	0.000	
13	 C42	5.285	-0.267	20.276	C.2	1	LIG1	0.000	
14	 C51	8.430	-2.357	22.966	C.3	1	LIG1	0.000	
15	 C50	7.531	-2.188	24.161	C.3	1	LIG1	0.000	
16	 N45	7.789	-3.147	25.130	N.3	1	LIG1	0.000	
17	 S52	6.638	-4.220	25.521	S.O2	1	LIG1	0.000	
18	 O23	6.506	-4.309	26.916	O.2	1	LIG1	0.000	
19	 O24	5.442	-3.742	24.866	O.2	1	LIG1	0.000	
20	 N44	6.924	-5.731	24.899	N.3	1	LIG1	0.000	
21	 C47	7.005	-6.019	23.483	C.3	1	LIG1	0.000	
22	 C49	8.007	-7.303	23.868	C.3	1	LIG1	0.000	
23	 C48	7.999	-6.552	25.374	C.3	1	LIG1	0.000	
24	 C46	9.055	-2.980	25.754	C.3	1	LIG1	0.000	
25	 C35	10.121	-2.785	24.725	C.2	1	LIG1	0.000	
26	 C30	11.456	-2.922	25.129	C.2	1	LIG1	0.000	
27	 C29	12.474	-2.727	24.220	C.2	1	LIG1	0.000	
28	 C34	12.166	-2.411	22.911	C.2	1	LIG1	0.000	
29	CL25	13.418	-2.211	21.768	Cl	1	LIG1	0.000	
30	 C31	10.878	-2.300	22.509	C.2	1	LIG1	0.000	
31	 C36	9.828	-2.436	23.410	C.2	1	LIG1	0.000	
@<TRIPOS>BOND
1 1 2 2
2 2 3 1
3 2 14 1
4 3 4 1
5 4 5 ar
6 4 13 ar
7 5 6 ar
8 6 7 ar
9 7 8 ar
10 8 9 ar
11 8 13 ar
12 9 10 ar
13 10 11 ar
14 11 12 ar
15 12 13 ar
16 14 15 1
17 14 31 1
18 15 16 1
19 16 17 1
20 16 24 1
21 17 18 2
22 17 19 2
23 17 20 1
24 20 21 1
25 20 23 1
26 21 22 1
27 22 23 1
28 24 25 1
29 25 26 ar
30 25 31 ar
31 26 27 ar
32 27 28 ar
33 28 29 1
34 28 30 ar
35 30 31 ar
@<TRIPOS>SUBSTRUCTURE
1	LIG1	1	GROUP	1 C	LIG
