# created with PyMOL 3.1.3.1
@<TRIPOS>MOLECULE
predicted
12 12 1                 
SMALL
USER_CHARGES
@<TRIPOS>ATOM
1	 C21	-8.716	-1.011	-22.755	C.3	1	LIG1	0.000	
2	 O15	-8.740	-2.082	-23.580	O.3	1	LIG1	0.000	
3	 C18	-8.043	-3.209	-23.257	C.2	1	LIG1	0.000	
4	 C20	-7.836	-4.172	-24.239	C.2	1	LIG1	0.000	
5	 C19	-7.152	-5.281	-23.825	C.2	1	LIG1	0.000	
6	 O16	-6.899	-6.283	-24.704	O.3	1	LIG1	0.000	
7	 C22	-7.514	-6.179	-25.949	C.3	1	LIG1	0.000	
8	 N14	-6.716	-5.443	-22.550	N.2	1	LIG1	0.000	
9	 C17	-6.950	-4.473	-21.693	C.2	1	LIG1	0.000	
10	 C23	-6.510	-4.676	-20.266	C.3	1	LIG1	0.000	
11	 N24	-5.218	-4.695	-19.904	N.3	1	LIG1	0.000	
12	 N13	-7.617	-3.340	-22.012	N.2	1	LIG1	0.000	
@<TRIPOS>BOND
1 1 2 1
2 2 3 1
3 3 4 ar
4 3 12 ar
5 4 5 ar
6 5 6 1
7 5 8 ar
8 6 7 1
9 8 9 ar
10 9 10 1
11 9 12 ar
12 10 11 1
@<TRIPOS>SUBSTRUCTURE
1	LIG1	1	GROUP	1 C	LIG
