# created with PyMOL 3.1.3.1
@<TRIPOS>MOLECULE
predicted
27 29 1                 
SMALL
USER_CHARGES
@<TRIPOS>ATOM
1	 C47	5.974	3.644	24.604	C.3	1	LIG1	0.000	
2	 N50	5.503	2.403	25.067	N.3	1	LIG1	0.000	
3	 C48	5.995	1.826	26.227	C.3	1	LIG1	0.000	
4	 C49	4.041	2.377	25.018	C.3	1	LIG1	0.000	
5	 C46	3.670	1.298	24.000	C.3	1	LIG1	0.000	
6	 O27	3.202	1.893	22.847	O.3	1	LIG1	0.000	
7	 C36	3.735	1.656	21.581	C.2	1	LIG1	0.000	
8	 C34	3.098	2.136	20.488	C.2	1	LIG1	0.000	
9	 C39	3.585	1.933	19.212	C.2	1	LIG1	0.000	
10	 C42	4.730	1.225	19.014	C.2	1	LIG1	0.000	
11	 C38	5.279	0.972	17.737	C.2	1	LIG1	0.000	
12	 N26	6.411	0.324	17.562	N.2	1	LIG1	0.000	
13	 C29	7.058	-0.169	18.628	C.2	1	LIG1	0.000	
14	 C41	6.612	-0.019	19.906	C.2	1	LIG1	0.000	
15	 N44	7.280	-0.537	21.032	N.pl3	1	LIG1	0.000	
16	 C28	8.367	0.116	21.530	C.2	1	LIG1	0.000	
17	 O24	8.828	1.096	20.998	O.2	1	LIG1	0.000	
18	 C45	8.949	-0.527	22.771	C.3	1	LIG1	0.000	
19	 C37	10.384	-0.136	22.979	C.2	1	LIG1	0.000	
20	 C32	10.632	1.020	23.752	C.2	1	LIG1	0.000	
21	 C30	11.933	1.415	23.915	C.2	1	LIG1	0.000	
22	 C31	12.965	0.665	23.357	C.2	1	LIG1	0.000	
23	 C35	12.671	-0.482	22.626	C.2	1	LIG1	0.000	
24	CL25	13.905	-1.429	21.936	Cl	1	LIG1	0.000	
25	 C33	11.386	-0.885	22.437	C.2	1	LIG1	0.000	
26	 C43	5.404	0.706	20.146	C.2	1	LIG1	0.000	
27	 C40	4.881	0.944	21.407	C.2	1	LIG1	0.000	
@<TRIPOS>BOND
1 1 2 1
2 2 3 1
3 2 4 1
4 4 5 1
5 5 6 1
6 6 7 1
7 7 8 ar
8 7 27 ar
9 8 9 ar
10 9 10 ar
11 10 11 ar
12 10 26 ar
13 11 12 ar
14 12 13 ar
15 13 14 ar
16 14 15 1
17 14 26 ar
18 15 16 1
19 16 17 2
20 16 18 1
21 18 19 1
22 19 20 ar
23 19 25 ar
24 20 21 ar
25 21 22 ar
26 22 23 ar
27 23 24 1
28 23 25 ar
29 26 27 ar
@<TRIPOS>SUBSTRUCTURE
1	LIG1	1	GROUP	1 C	LIG
