# created with PyMOL 3.1.3.1
@<TRIPOS>MOLECULE
predicted
21 23 1                 
SMALL
USER_CHARGES
@<TRIPOS>ATOM
1	 C36	-5.557	-2.273	-23.693	C.3	1	LIG1	0.000	
2	 C37	-6.202	-2.047	-22.377	C.3	1	LIG1	0.000	
3	 N32	-6.437	-0.645	-22.062	N.pl3	1	LIG1	0.000	
4	 C34	-5.454	0.058	-21.301	C.3	1	LIG1	0.000	
5	 C27	-5.207	-0.528	-19.962	C.3	1	LIG1	0.000	
6	 C24	-4.307	0.353	-19.158	C.3	1	LIG1	0.000	
7	 C22	-4.766	0.290	-17.838	C.3	1	LIG1	0.000	
8	 O20	-5.954	-0.368	-17.768	O.3	1	LIG1	0.000	
9	 C23	-6.314	-0.769	-19.032	C.3	1	LIG1	0.000	
10	 C21	-7.550	0.003	-22.458	C.2	1	LIG1	0.000	
11	 O17	-8.048	0.880	-21.800	O.2	1	LIG1	0.000	
12	 C35	-8.178	-0.421	-23.742	C.3	1	LIG1	0.000	
13	 N33	-9.563	-0.063	-23.766	N.2	1	LIG1	0.000	
14	 N19	-9.982	1.124	-24.162	N.2	1	LIG1	0.000	
15	 N18	-11.282	1.165	-24.090	N.2	1	LIG1	0.000	
16	 C30	-11.722	-0.017	-23.619	C.2	1	LIG1	0.000	
17	 C28	-12.962	-0.521	-23.319	C.2	1	LIG1	0.000	
18	 C25	-13.041	-1.823	-22.816	C.2	1	LIG1	0.000	
19	 C26	-11.937	-2.581	-22.586	C.2	1	LIG1	0.000	
20	 C29	-10.692	-2.078	-22.874	C.2	1	LIG1	0.000	
21	 C31	-10.598	-0.811	-23.398	C.2	1	LIG1	0.000	
@<TRIPOS>BOND
1 1 2 1
2 2 3 1
3 3 4 1
4 3 10 1
5 4 5 1
6 5 6 1
7 5 9 1
8 6 7 1
9 7 8 1
10 8 9 1
11 10 11 2
12 10 12 1
13 12 13 1
14 13 14 ar
15 13 21 ar
16 14 15 ar
17 15 16 ar
18 16 17 ar
19 16 21 ar
20 17 18 ar
21 18 19 ar
22 19 20 ar
23 20 21 ar
@<TRIPOS>SUBSTRUCTURE
1	LIG1	1	GROUP	1 C	LIG
