# created with PyMOL 3.1.3.1
@<TRIPOS>MOLECULE
predicted
31 34 1                 
SMALL
USER_CHARGES
@<TRIPOS>ATOM
1	 C46	8.982	-1.841	24.439	C.3	1	LIG1	0.000	
2	 O27	8.506	-1.247	23.252	O.3	1	LIG1	0.000	
3	 C50	8.894	0.108	22.998	C.3	1	LIG1	0.000	
4	 C28	8.365	0.557	21.653	C.2	1	LIG1	0.000	
5	 O21	8.859	1.491	21.045	O.2	1	LIG1	0.000	
6	 N44	7.280	-0.096	21.197	N.pl3	1	LIG1	0.000	
7	 C41	6.591	0.300	20.009	C.2	1	LIG1	0.000	
8	 C29	7.067	-0.003	18.738	C.2	1	LIG1	0.000	
9	 N25	6.433	0.376	17.610	N.2	1	LIG1	0.000	
10	 C38	5.264	1.042	17.685	C.2	1	LIG1	0.000	
11	 C42	4.719	1.408	18.935	C.2	1	LIG1	0.000	
12	 C39	3.553	2.126	19.049	C.2	1	LIG1	0.000	
13	 C33	3.073	2.475	20.306	C.2	1	LIG1	0.000	
14	 C36	3.733	2.130	21.454	C.2	1	LIG1	0.000	
15	 N45	3.192	2.478	22.663	N.pl3	1	LIG1	0.000	
16	 S51	4.170	2.786	23.939	S.O2	1	LIG1	0.000	
17	 C49	3.204	3.459	25.201	C.3	1	LIG1	0.000	
18	 O22	5.189	3.745	23.527	O.2	1	LIG1	0.000	
19	 O23	4.697	1.527	24.423	O.2	1	LIG1	0.000	
20	 C40	4.888	1.397	21.384	C.2	1	LIG1	0.000	
21	 C43	5.401	1.023	20.130	C.2	1	LIG1	0.000	
22	 C48	8.236	0.950	24.126	C.3	1	LIG1	0.000	
23	 C47	8.914	2.305	24.265	C.3	1	LIG1	0.000	
24	 O26	10.318	2.130	24.540	O.3	1	LIG1	0.000	
25	 C35	11.027	1.269	23.725	C.2	1	LIG1	0.000	
26	 C31	12.388	1.378	23.743	C.2	1	LIG1	0.000	
27	 C30	13.147	0.493	23.042	C.2	1	LIG1	0.000	
28	 C34	12.558	-0.551	22.313	C.2	1	LIG1	0.000	
29	CL24	13.560	-1.634	21.476	Cl	1	LIG1	0.000	
30	 C32	11.191	-0.687	22.286	C.2	1	LIG1	0.000	
31	 C37	10.386	0.199	23.031	C.2	1	LIG1	0.000	
@<TRIPOS>BOND
1 1 2 1
2 2 3 1
3 3 4 1
4 3 22 1
5 3 31 1
6 4 5 2
7 4 6 1
8 6 7 1
9 7 8 ar
10 7 21 ar
11 8 9 ar
12 9 10 ar
13 10 11 ar
14 11 12 ar
15 11 21 ar
16 12 13 ar
17 13 14 ar
18 14 15 1
19 14 20 ar
20 15 16 1
21 16 17 1
22 16 18 2
23 16 19 2
24 20 21 ar
25 22 23 1
26 23 24 1
27 24 25 1
28 25 26 ar
29 25 31 ar
30 26 27 ar
31 27 28 ar
32 28 29 1
33 28 30 ar
34 30 31 ar
@<TRIPOS>SUBSTRUCTURE
1	LIG1	1	GROUP	1 C	LIG
