# created with PyMOL 3.1.3.1
@<TRIPOS>MOLECULE
predicted
16 17 1                 
SMALL
USER_CHARGES
@<TRIPOS>ATOM
1	 C26	7.901	-2.271	19.283	C.3	1	LIG1	0.000	
2	 C24	6.800	-2.519	20.252	C.3	1	LIG1	0.000	
3	 O21	5.720	-2.836	19.859	O.3	1	LIG1	0.000	
4	 N25	7.028	-2.320	21.577	N.2	1	LIG1	0.000	
5	 C27	5.992	-2.556	22.555	C.2	1	LIG1	0.000	
6	 C31	6.367	-2.564	23.918	C.2	1	LIG1	0.000	
7	 N36	7.641	-2.200	24.268	N.2	1	LIG1	0.000	
8	 C33	7.988	-2.043	25.631	C.3	1	LIG1	0.000	
9	 C34	7.711	-3.198	26.510	C.2	1	LIG1	0.000	
10	 C29	6.666	-3.280	27.367	C.2	1	LIG1	0.000	
11	 C30	6.630	-4.445	28.066	C.2	1	LIG1	0.000	
12	 C35	7.673	-5.250	27.740	C.2	1	LIG1	0.000	
13	CL22	7.911	-6.838	28.494	Cl	1	LIG1	0.000	
14	 S23	8.640	-4.589	26.609	S.2	1	LIG1	0.000	
15	 C32	8.655	-1.891	23.372	C.2	1	LIG1	0.000	
16	 C28	8.365	-1.888	22.029	C.2	1	LIG1	0.000	
@<TRIPOS>BOND
1 1 2 1
2 2 3 1
3 2 4 1
4 4 5 ar
5 4 16 ar
6 5 6 ar
7 6 7 ar
8 7 8 1
9 7 15 ar
10 8 9 1
11 9 10 ar
12 9 14 ar
13 10 11 ar
14 11 12 ar
15 12 13 1
16 12 14 ar
17 15 16 ar
@<TRIPOS>SUBSTRUCTURE
1	LIG1	1	GROUP	1 C	LIG
