# created with PyMOL 3.1.3.1
@<TRIPOS>MOLECULE
predicted
30 33 1                 
SMALL
USER_CHARGES
@<TRIPOS>ATOM
1	 C46	6.173	-6.096	24.982	C.3	1	LIG1	0.000	
2	 N45	6.754	-4.892	25.426	N.pl3	1	LIG1	0.000	
3	 C27	6.259	-3.744	25.062	C.2	1	LIG1	0.000	
4	 O22	5.417	-3.637	24.247	O.2	1	LIG1	0.000	
5	 C47	6.965	-2.535	25.543	C.3	1	LIG1	0.000	
6	 N51	7.959	-2.287	24.596	N.3	1	LIG1	0.000	
7	 C48	9.288	-2.445	25.177	C.3	1	LIG1	0.000	
8	 C36	10.401	-2.028	24.272	C.2	1	LIG1	0.000	
9	 C31	11.713	-2.194	24.717	C.2	1	LIG1	0.000	
10	 C30	12.747	-1.806	23.938	C.2	1	LIG1	0.000	
11	 C34	12.494	-1.249	22.717	C.2	1	LIG1	0.000	
12	CL24	13.809	-0.775	21.778	Cl	1	LIG1	0.000	
13	 C32	11.219	-1.099	22.270	C.2	1	LIG1	0.000	
14	 C37	10.141	-1.421	23.052	C.2	1	LIG1	0.000	
15	 C50	8.745	-1.338	22.598	C.3	1	LIG1	0.000	
16	 C28	8.326	-0.391	21.560	C.2	1	LIG1	0.000	
17	 O23	8.884	0.649	21.322	O.2	1	LIG1	0.000	
18	 N44	7.241	-0.836	20.880	N.pl3	1	LIG1	0.000	
19	 C41	6.644	-0.115	19.797	C.2	1	LIG1	0.000	
20	 C29	7.132	-0.218	18.526	C.2	1	LIG1	0.000	
21	 N26	6.574	0.385	17.475	N.2	1	LIG1	0.000	
22	 C38	5.465	1.083	17.613	C.2	1	LIG1	0.000	
23	 C42	4.881	1.247	18.887	C.2	1	LIG1	0.000	
24	 C39	3.735	2.006	19.068	C.2	1	LIG1	0.000	
25	 C35	3.193	2.128	20.330	C.2	1	LIG1	0.000	
26	CL25	1.761	3.020	20.542	Cl	1	LIG1	0.000	
27	 C33	3.773	1.517	21.432	C.2	1	LIG1	0.000	
28	 C40	4.911	0.777	21.291	C.2	1	LIG1	0.000	
29	 C43	5.472	0.627	20.006	C.2	1	LIG1	0.000	
30	 C49	7.809	-1.230	23.757	C.3	1	LIG1	0.000	
@<TRIPOS>BOND
1 1 2 1
2 2 3 1
3 3 4 2
4 3 5 1
5 5 6 1
6 6 7 1
7 6 30 1
8 7 8 1
9 8 9 ar
10 8 14 ar
11 9 10 ar
12 10 11 ar
13 11 12 1
14 11 13 ar
15 13 14 ar
16 14 15 1
17 15 16 1
18 15 30 1
19 16 17 2
20 16 18 1
21 18 19 1
22 19 20 ar
23 19 29 ar
24 20 21 ar
25 21 22 ar
26 22 23 ar
27 23 24 ar
28 23 29 ar
29 24 25 ar
30 25 26 1
31 25 27 ar
32 27 28 ar
33 28 29 ar
@<TRIPOS>SUBSTRUCTURE
1	LIG1	1	GROUP	1 C	LIG
