# created with PyMOL 3.1.3.1
@<TRIPOS>MOLECULE
predicted
34 39 1                 
SMALL
USER_CHARGES
@<TRIPOS>ATOM
1	 O22	10.271	3.334	23.877	O.2	1	LIG1	0.000	
2	 O23	8.619	1.350	20.901	O.2	1	LIG1	0.000	
3	 N25	5.544	3.709	23.443	N.2	1	LIG1	0.000	
4	 N26	6.199	0.141	17.456	N.2	1	LIG1	0.000	
5	 O27	5.153	4.285	22.270	O.2	1	LIG1	0.000	
6	 C28	9.864	2.174	23.736	C.2	1	LIG1	0.000	
7	 C29	8.221	0.320	21.405	C.2	1	LIG1	0.000	
8	 C30	6.895	-0.243	18.515	C.2	1	LIG1	0.000	
9	 C31	6.824	3.536	23.408	C.2	1	LIG1	0.000	
10	 C32	6.183	4.472	21.525	C.2	1	LIG1	0.000	
11	 C33	7.288	4.017	22.227	C.2	1	LIG1	0.000	
12	 C34	12.970	0.286	22.859	C.2	1	LIG1	0.000	
13	 C35	12.140	1.298	23.260	C.2	1	LIG1	0.000	
14	 C36	11.070	-1.103	22.312	C.2	1	LIG1	0.000	
15	 C37	2.712	1.800	20.319	C.2	1	LIG1	0.000	
16	 C38	3.401	1.382	21.438	C.2	1	LIG1	0.000	
17	 C39	12.456	-0.906	22.394	C.2	1	LIG1	0.000	
18	 C40	10.764	1.111	23.241	C.2	1	LIG1	0.000	
19	 C41	10.210	-0.110	22.802	C.2	1	LIG1	0.000	
20	 C42	5.007	0.723	17.610	C.2	1	LIG1	0.000	
21	 C43	3.239	1.575	19.055	C.2	1	LIG1	0.000	
22	 C44	4.608	0.770	21.300	C.2	1	LIG1	0.000	
23	 C45	6.434	-0.060	19.811	C.2	1	LIG1	0.000	
24	 C46	4.464	0.965	18.890	C.2	1	LIG1	0.000	
25	 C47	5.175	0.560	20.031	C.2	1	LIG1	0.000	
26	 N48	7.206	-0.425	20.898	N.pl3	1	LIG1	0.000	
27	 N49	8.516	1.881	23.963	N.pl3	1	LIG1	0.000	
28	 C50	7.635	2.870	24.513	C.3	1	LIG1	0.000	
29	 C51	8.057	-2.447	23.838	C.3	1	LIG1	0.000	
30	 C52	7.060	-1.650	21.631	C.3	1	LIG1	0.000	
31	 C53	8.021	0.508	23.872	C.3	1	LIG1	0.000	
32	 C54	8.211	-1.669	22.601	C.3	1	LIG1	0.000	
33	 C55	8.713	-0.255	22.713	C.3	1	LIG1	0.000	
34	 F24	13.303	-1.865	22.010	 F	1	LIG1	0.000	
@<TRIPOS>BOND
1 4 20 ar
2 3 5 ar
3 1 6 2
4 6 18 1
5 2 7 2
6 7 33 1
7 4 8 ar
8 3 9 ar
9 9 11 ar
10 5 10 ar
11 10 11 ar
12 12 17 ar
13 12 13 ar
14 14 19 ar
15 15 16 ar
16 16 22 ar
17 14 17 ar
18 17 34 1
19 13 18 ar
20 18 19 ar
21 20 24 ar
22 15 21 ar
23 22 25 ar
24 8 23 ar
25 23 25 ar
26 21 24 ar
27 24 25 ar
28 7 26 1
29 23 26 1
30 6 27 1
31 27 28 1
32 9 28 1
33 29 32 1
34 26 30 1
35 27 31 1
36 30 32 1
37 32 33 1
38 19 33 1
39 31 33 1
@<TRIPOS>SUBSTRUCTURE
1	LIG1	1	GROUP	1 C	LIG
