# created with PyMOL 3.1.3.1
@<TRIPOS>MOLECULE
predicted
32 35 1                 
SMALL
USER_CHARGES
@<TRIPOS>ATOM
1	 O26	-8.326	0.412	-21.182	O.2	1	LIG1	0.000	
2	 O27	-5.525	-4.764	-22.314	O.2	1	LIG1	0.000	
3	 N28	-6.029	-0.433	-17.781	N.2	1	LIG1	0.000	
4	 C29	-7.786	-0.463	-21.863	C.2	1	LIG1	0.000	
5	 C30	-6.098	-5.563	-23.031	C.2	1	LIG1	0.000	
6	 C31	-6.530	-0.950	-18.899	C.2	1	LIG1	0.000	
7	 C32	-12.925	-2.455	-23.321	C.2	1	LIG1	0.000	
8	 C33	-6.537	-2.100	-26.105	C.2	1	LIG1	0.000	
9	 C34	-12.812	-1.486	-24.264	C.2	1	LIG1	0.000	
10	 C35	-11.912	-2.657	-22.459	C.2	1	LIG1	0.000	
11	 C36	-6.457	-3.458	-25.761	C.2	1	LIG1	0.000	
12	 C37	-7.142	-1.195	-25.233	C.2	1	LIG1	0.000	
13	 C38	-7.555	-2.978	-23.690	C.2	1	LIG1	0.000	
14	 C39	-11.651	-0.699	-24.319	C.2	1	LIG1	0.000	
15	 C40	-10.747	-1.878	-22.532	C.2	1	LIG1	0.000	
16	 C41	-2.679	1.796	-20.297	C.2	1	LIG1	0.000	
17	 C42	-3.184	1.299	-21.468	C.2	1	LIG1	0.000	
18	 C43	-6.936	-3.864	-24.519	C.2	1	LIG1	0.000	
19	 C44	-7.640	-1.645	-24.013	C.2	1	LIG1	0.000	
20	 C45	-10.636	-0.888	-23.462	C.2	1	LIG1	0.000	
21	 C46	-4.978	0.319	-17.826	C.2	1	LIG1	0.000	
22	 C47	-3.265	1.486	-19.093	C.2	1	LIG1	0.000	
23	 C48	-4.286	0.482	-21.475	C.2	1	LIG1	0.000	
24	 C49	-6.010	-0.673	-20.148	C.2	1	LIG1	0.000	
25	 C50	-4.360	0.658	-19.044	C.2	1	LIG1	0.000	
26	 C51	-4.880	0.147	-20.239	C.2	1	LIG1	0.000	
27	 N52	-6.816	-5.216	-24.114	N.pl3	1	LIG1	0.000	
28	 N53	-8.235	-0.704	-23.119	N.pl3	1	LIG1	0.000	
29	 C54	-6.644	-1.260	-21.353	C.3	1	LIG1	0.000	
30	 C55	-9.411	-0.001	-23.569	C.3	1	LIG1	0.000	
31	 C56	-5.557	-7.286	-21.423	C.3	1	LIG1	0.000	
32	 C57	-6.106	-7.014	-22.715	C.3	1	LIG1	0.000	
@<TRIPOS>BOND
1 3 21 ar
2 1 4 2
3 4 29 1
4 2 5 2
5 5 27 1
6 3 6 ar
7 7 10 ar
8 8 12 ar
9 7 9 ar
10 10 15 ar
11 8 11 ar
12 12 19 ar
13 9 14 ar
14 16 17 ar
15 17 23 ar
16 11 18 ar
17 13 18 ar
18 13 19 ar
19 19 28 1
20 14 20 ar
21 15 20 ar
22 21 25 ar
23 16 22 ar
24 23 26 ar
25 6 24 ar
26 24 26 ar
27 22 25 ar
28 25 26 ar
29 18 27 1
30 4 28 1
31 28 30 1
32 24 29 1
33 20 30 1
34 31 32 1
35 5 32 1
@<TRIPOS>SUBSTRUCTURE
1	LIG1	1	GROUP	1 C	LIG
