# created with PyMOL 3.1.3.1
@<TRIPOS>MOLECULE
predicted
37 42 1                 
SMALL
USER_CHARGES
@<TRIPOS>ATOM
1	 O27	-10.961	2.196	-24.303	O.2	1	LIG1	0.000	
2	 O28	-6.188	2.150	-24.522	O.2	1	LIG1	0.000	
3	 O29	-8.742	0.562	-21.492	O.2	1	LIG1	0.000	
4	 N32	-6.232	-0.592	-17.988	N.2	1	LIG1	0.000	
5	 C33	-10.435	1.077	-24.151	C.2	1	LIG1	0.000	
6	 C34	-7.330	2.472	-24.302	C.2	1	LIG1	0.000	
7	 C35	-8.350	-0.498	-21.938	C.2	1	LIG1	0.000	
8	 C36	-6.934	-1.031	-19.019	C.2	1	LIG1	0.000	
9	 C37	-13.179	-0.990	-22.794	C.2	1	LIG1	0.000	
10	 C38	-12.509	0.041	-23.369	C.2	1	LIG1	0.000	
11	 C39	-11.097	-2.185	-22.421	C.2	1	LIG1	0.000	
12	 C40	-3.033	1.416	-20.947	C.2	1	LIG1	0.000	
13	 C41	-3.723	0.968	-22.050	C.2	1	LIG1	0.000	
14	 C42	-12.491	-2.114	-22.308	C.2	1	LIG1	0.000	
15	 C43	-11.134	-0.028	-23.506	C.2	1	LIG1	0.000	
16	 C44	-10.422	-1.171	-23.076	C.2	1	LIG1	0.000	
17	 C45	-5.104	0.089	-18.182	C.2	1	LIG1	0.000	
18	 C46	-3.482	1.126	-19.668	C.2	1	LIG1	0.000	
19	 C47	-4.860	0.242	-21.887	C.2	1	LIG1	0.000	
20	 C48	-6.535	-0.787	-20.350	C.2	1	LIG1	0.000	
21	 C49	-4.632	0.403	-19.469	C.2	1	LIG1	0.000	
22	 C50	-5.345	-0.043	-20.603	C.2	1	LIG1	0.000	
23	 N51	-7.720	3.198	-23.248	N.pl3	1	LIG1	0.000	
24	 N52	-7.324	-1.207	-21.415	N.pl3	1	LIG1	0.000	
25	 N53	-9.115	0.900	-24.515	N.pl3	1	LIG1	0.000	
26	 C54	-8.411	1.942	-25.165	C.3	1	LIG1	0.000	
27	 C55	-6.765	3.770	-22.328	C.3	1	LIG1	0.000	
28	 C56	-5.093	5.604	-22.297	C.3	1	LIG1	0.000	
29	 C57	-6.341	6.146	-21.694	C.3	1	LIG1	0.000	
30	 C58	-6.380	5.165	-22.700	C.3	1	LIG1	0.000	
31	 C59	-8.303	-3.398	-24.231	C.3	1	LIG1	0.000	
32	 C60	-7.167	-2.458	-22.086	C.3	1	LIG1	0.000	
33	 C61	-8.480	-0.421	-24.449	C.3	1	LIG1	0.000	
34	 C62	-8.292	-2.542	-23.053	C.3	1	LIG1	0.000	
35	 C63	-8.938	-1.183	-23.164	C.3	1	LIG1	0.000	
36	 F30	-13.177	-3.103	-21.760	 F	1	LIG1	0.000	
37	 F31	-6.876	5.548	-23.886	 F	1	LIG1	0.000	
@<TRIPOS>BOND
1 4 17 ar
2 1 5 2
3 5 15 1
4 2 6 2
5 6 23 1
6 3 7 2
7 7 35 1
8 4 8 ar
9 9 14 ar
10 9 10 ar
11 11 16 ar
12 12 13 ar
13 13 19 ar
14 11 14 ar
15 14 36 1
16 10 15 ar
17 15 16 ar
18 17 21 ar
19 12 18 ar
20 19 22 ar
21 8 20 ar
22 20 22 ar
23 18 21 ar
24 21 22 ar
25 23 27 1
26 7 24 1
27 20 24 1
28 5 25 1
29 25 26 1
30 6 26 1
31 27 30 1
32 28 29 1
33 28 30 1
34 29 30 1
35 30 37 1
36 31 34 1
37 24 32 1
38 25 33 1
39 32 34 1
40 34 35 1
41 16 35 1
42 33 35 1
@<TRIPOS>SUBSTRUCTURE
1	LIG1	1	GROUP	1 C	LIG
