# created with PyMOL 3.1.3.1
@<TRIPOS>MOLECULE
predicted
29 30 1                 
SMALL
USER_CHARGES
@<TRIPOS>ATOM
1	CL26	-13.235	-2.725	-22.194	Cl	1	LIG1	0.000	
2	 O21	-7.861	-0.027	-20.953	O.2	1	LIG1	0.000	
3	 O22	-3.690	-3.193	-19.944	O.2	1	LIG1	0.000	
4	 O23	-5.408	-4.168	-18.589	O.2	1	LIG1	0.000	
5	 O24	-13.115	6.481	-25.541	O.2	1	LIG1	0.000	
6	 O25	-13.049	6.918	-23.167	O.2	1	LIG1	0.000	
7	 O27	-5.937	-2.372	-20.205	O.3	1	LIG1	0.000	
8	 C28	-7.730	-1.215	-20.930	C.2	1	LIG1	0.000	
9	 C29	-10.626	2.770	-24.203	C.2	1	LIG1	0.000	
10	 C30	-12.744	2.578	-23.116	C.2	1	LIG1	0.000	
11	 C31	-12.311	-0.276	-22.942	C.2	1	LIG1	0.000	
12	 C32	-10.767	-2.045	-22.737	C.2	1	LIG1	0.000	
13	 C33	-10.089	0.132	-23.388	C.2	1	LIG1	0.000	
14	 C34	-10.888	4.103	-24.447	C.2	1	LIG1	0.000	
15	 C35	-12.969	3.927	-23.361	C.2	1	LIG1	0.000	
16	 C36	-12.018	-1.605	-22.660	C.2	1	LIG1	0.000	
17	 C37	-11.585	2.005	-23.565	C.2	1	LIG1	0.000	
18	 C38	-11.318	0.596	-23.290	C.2	1	LIG1	0.000	
19	 C39	-9.796	-1.170	-23.118	C.2	1	LIG1	0.000	
20	 C40	-12.037	4.686	-24.016	C.2	1	LIG1	0.000	
21	 N41	-7.983	-2.074	-21.931	N.pl3	1	LIG1	0.000	
22	 N42	-4.727	-1.825	-18.001	N.3	1	LIG1	0.000	
23	 N43	-11.011	7.102	-24.530	N.3	1	LIG1	0.000	
24	 C44	-7.178	-1.921	-19.738	C.3	1	LIG1	0.000	
25	 C45	-4.429	-0.484	-18.356	C.3	1	LIG1	0.000	
26	 C46	-8.199	-2.626	-24.357	C.3	1	LIG1	0.000	
27	 C47	-8.382	-1.608	-23.245	C.3	1	LIG1	0.000	
28	 S48	-4.930	-2.957	-19.194	S.3	1	LIG1	0.000	
29	 S49	-12.351	6.364	-24.313	S.O2	1	LIG1	0.000	
@<TRIPOS>BOND
1 7 24 1
2 2 8 2
3 8 21 1
4 9 14 ar
5 11 18 ar
6 12 16 ar
7 14 20 ar
8 10 15 ar
9 1 16 1
10 11 16 ar
11 9 17 ar
12 10 17 ar
13 13 18 ar
14 17 18 1
15 12 19 ar
16 13 19 ar
17 15 20 ar
18 20 29 1
19 21 27 1
20 22 28 1
21 8 24 1
22 22 25 1
23 19 27 1
24 26 27 1
25 3 28 2
26 4 28 2
27 7 28 1
28 5 29 2
29 6 29 2
30 23 29 1
@<TRIPOS>SUBSTRUCTURE
1	LIG1	1	GROUP	1 C	LIG
