# created with PyMOL 3.1.3.1
@<TRIPOS>MOLECULE
predicted
34 39 1                 
SMALL
USER_CHARGES
@<TRIPOS>ATOM
1	 O22	-10.705	2.326	-24.403	O.2	1	LIG1	0.000	
2	 O23	-8.610	0.635	-21.480	O.2	1	LIG1	0.000	
3	 N25	-6.154	-0.486	-17.968	N.2	1	LIG1	0.000	
4	 N26	-6.431	3.770	-22.365	N.2	1	LIG1	0.000	
5	 N27	-5.873	2.818	-24.261	N.2	1	LIG1	0.000	
6	 C28	-10.183	1.206	-24.230	C.2	1	LIG1	0.000	
7	 C29	-8.206	-0.411	-21.937	C.2	1	LIG1	0.000	
8	 C30	-7.543	3.342	-23.013	C.2	1	LIG1	0.000	
9	 C31	-6.838	-0.931	-19.004	C.2	1	LIG1	0.000	
10	 C32	-7.167	2.742	-24.164	C.2	1	LIG1	0.000	
11	 C33	-13.037	-0.837	-22.953	C.2	1	LIG1	0.000	
12	 C34	-12.323	0.188	-23.514	C.2	1	LIG1	0.000	
13	 C35	-10.979	-2.056	-22.502	C.2	1	LIG1	0.000	
14	 C36	-2.851	1.402	-20.926	C.2	1	LIG1	0.000	
15	 C37	-3.526	0.928	-22.028	C.2	1	LIG1	0.000	
16	 C38	-12.376	-1.963	-22.442	C.2	1	LIG1	0.000	
17	 C39	-10.936	0.104	-23.603	C.2	1	LIG1	0.000	
18	 C40	-10.257	-1.052	-23.155	C.2	1	LIG1	0.000	
19	 C41	-4.997	0.181	-18.149	C.2	1	LIG1	0.000	
20	 C42	-3.328	1.149	-19.642	C.2	1	LIG1	0.000	
21	 C43	-4.690	0.241	-21.860	C.2	1	LIG1	0.000	
22	 C44	-6.417	-0.706	-20.328	C.2	1	LIG1	0.000	
23	 C45	-4.500	0.450	-19.448	C.2	1	LIG1	0.000	
24	 C46	-5.202	-0.004	-20.575	C.2	1	LIG1	0.000	
25	 N47	-7.187	-1.128	-21.400	N.pl3	1	LIG1	0.000	
26	 N48	-8.838	1.010	-24.532	N.pl3	1	LIG1	0.000	
27	 N49	-5.422	3.441	-23.134	N.2	1	LIG1	0.000	
28	 C50	-8.084	2.059	-25.183	C.3	1	LIG1	0.000	
29	 C51	-8.170	-3.299	-24.241	C.3	1	LIG1	0.000	
30	 C52	-7.041	-2.397	-22.062	C.3	1	LIG1	0.000	
31	 C53	-8.221	-0.313	-24.435	C.3	1	LIG1	0.000	
32	 C54	-8.153	-2.459	-23.053	C.3	1	LIG1	0.000	
33	 C55	-8.750	-1.079	-23.184	C.3	1	LIG1	0.000	
34	 F24	-13.095	-2.935	-21.895	 F	1	LIG1	0.000	
@<TRIPOS>BOND
1 3 19 ar
2 4 27 ar
3 1 6 2
4 6 17 1
5 2 7 2
6 7 33 1
7 4 8 ar
8 3 9 ar
9 5 10 ar
10 8 10 ar
11 11 16 ar
12 11 12 ar
13 13 18 ar
14 14 15 ar
15 15 21 ar
16 13 16 ar
17 16 34 1
18 12 17 ar
19 17 18 ar
20 19 23 ar
21 14 20 ar
22 21 24 ar
23 9 22 ar
24 22 24 ar
25 20 23 ar
26 23 24 ar
27 7 25 1
28 22 25 1
29 6 26 1
30 26 28 1
31 5 27 ar
32 10 28 1
33 29 32 1
34 25 30 1
35 26 31 1
36 30 32 1
37 32 33 1
38 18 33 1
39 31 33 1
@<TRIPOS>SUBSTRUCTURE
1	LIG1	1	GROUP	1 C	LIG
