# created with PyMOL 3.1.3.1
@<TRIPOS>MOLECULE
predicted
34 38 1                 
SMALL
USER_CHARGES
@<TRIPOS>ATOM
1	CL27	-13.238	-3.052	-22.087	Cl	1	LIG1	0.000	
2	 O24	-10.619	2.602	-24.444	O.2	1	LIG1	0.000	
3	 O25	-5.866	2.436	-24.253	O.2	1	LIG1	0.000	
4	 O26	-8.595	0.869	-21.569	O.2	1	LIG1	0.000	
5	 N28	-6.201	-0.372	-17.985	N.2	1	LIG1	0.000	
6	 O29	-7.336	-4.092	-24.455	O.3	1	LIG1	0.000	
7	 C30	-10.091	1.475	-24.308	C.2	1	LIG1	0.000	
8	 C31	-6.961	2.887	-24.202	C.2	1	LIG1	0.000	
9	 C32	-8.191	-0.190	-22.013	C.2	1	LIG1	0.000	
10	 C33	-6.869	-0.799	-19.039	C.2	1	LIG1	0.000	
11	 C34	-12.943	-0.628	-23.217	C.2	1	LIG1	0.000	
12	 C35	-12.229	0.416	-23.715	C.2	1	LIG1	0.000	
13	 C36	-10.898	-1.838	-22.723	C.2	1	LIG1	0.000	
14	 C37	-2.831	1.497	-20.884	C.2	1	LIG1	0.000	
15	 C38	-3.505	1.054	-21.991	C.2	1	LIG1	0.000	
16	 C39	-12.284	-1.759	-22.712	C.2	1	LIG1	0.000	
17	 C40	-10.857	0.356	-23.749	C.2	1	LIG1	0.000	
18	 C41	-10.171	-0.812	-23.303	C.2	1	LIG1	0.000	
19	 C42	-5.038	0.283	-18.149	C.2	1	LIG1	0.000	
20	 C43	-3.327	1.247	-19.615	C.2	1	LIG1	0.000	
21	 C44	-4.675	0.386	-21.846	C.2	1	LIG1	0.000	
22	 C45	-6.448	-0.542	-20.351	C.2	1	LIG1	0.000	
23	 C46	-4.518	0.566	-19.434	C.2	1	LIG1	0.000	
24	 C47	-5.214	0.132	-20.573	C.2	1	LIG1	0.000	
25	 N48	-7.327	3.743	-23.248	N.pl3	1	LIG1	0.000	
26	 N49	-7.199	-0.944	-21.452	N.pl3	1	LIG1	0.000	
27	 N50	-8.751	1.312	-24.583	N.pl3	1	LIG1	0.000	
28	 C51	-6.374	4.237	-22.298	C.3	1	LIG1	0.000	
29	 C52	-8.026	2.412	-25.153	C.3	1	LIG1	0.000	
30	 C53	-8.002	-2.957	-24.431	C.3	1	LIG1	0.000	
31	 C54	-7.025	-2.177	-22.137	C.3	1	LIG1	0.000	
32	 C55	-8.121	-0.015	-24.516	C.3	1	LIG1	0.000	
33	 C56	-8.092	-2.201	-23.168	C.3	1	LIG1	0.000	
34	 C57	-8.683	-0.828	-23.293	C.3	1	LIG1	0.000	
@<TRIPOS>BOND
1 5 19 ar
2 2 7 2
3 3 8 2
4 8 29 1
5 4 9 2
6 9 26 1
7 5 10 ar
8 11 12 ar
9 12 17 ar
10 13 16 ar
11 14 15 ar
12 15 21 ar
13 1 16 1
14 11 16 ar
15 7 17 1
16 13 18 ar
17 17 18 ar
18 19 23 ar
19 14 20 ar
20 21 24 ar
21 10 22 ar
22 22 24 ar
23 20 23 ar
24 23 24 ar
25 8 25 1
26 22 26 1
27 26 31 1
28 7 27 1
29 27 32 1
30 25 28 1
31 27 29 1
32 6 30 1
33 31 33 1
34 32 34 1
35 30 33 1
36 9 34 1
37 18 34 1
38 33 34 1
@<TRIPOS>SUBSTRUCTURE
1	LIG1	1	GROUP	1 C	LIG
