# created with PyMOL 3.1.3.1
@<TRIPOS>MOLECULE
predicted
32 36 1                 
SMALL
USER_CHARGES
@<TRIPOS>ATOM
1	 O25	-11.239	2.008	-23.816	O.2	1	LIG1	0.000	
2	 O26	-9.652	3.466	-25.646	O.2	1	LIG1	0.000	
3	 O27	-8.845	0.389	-21.352	O.2	1	LIG1	0.000	
4	 N28	-6.173	-0.707	-18.006	N.2	1	LIG1	0.000	
5	 C29	-10.552	0.992	-23.849	C.2	1	LIG1	0.000	
6	 C30	-9.154	3.472	-24.549	C.2	1	LIG1	0.000	
7	 C31	-8.330	-0.572	-21.903	C.2	1	LIG1	0.000	
8	 C32	-6.852	-1.122	-19.058	C.2	1	LIG1	0.000	
9	 C33	-13.082	-1.636	-23.164	C.2	1	LIG1	0.000	
10	 C34	-12.281	-2.713	-22.808	C.2	1	LIG1	0.000	
11	 C35	-12.518	-0.432	-23.504	C.2	1	LIG1	0.000	
12	 C36	-10.863	-2.578	-22.776	C.2	1	LIG1	0.000	
13	 C37	-3.010	1.500	-20.890	C.2	1	LIG1	0.000	
14	 C38	-3.711	1.083	-22.018	C.2	1	LIG1	0.000	
15	 C39	-11.145	-0.292	-23.517	C.2	1	LIG1	0.000	
16	 C40	-10.293	-1.369	-23.223	C.2	1	LIG1	0.000	
17	 C41	-5.049	0.009	-18.165	C.2	1	LIG1	0.000	
18	 C42	-3.444	1.143	-19.620	C.2	1	LIG1	0.000	
19	 C43	-4.836	0.324	-21.877	C.2	1	LIG1	0.000	
20	 C44	-6.474	-0.819	-20.370	C.2	1	LIG1	0.000	
21	 C45	-4.587	0.378	-19.450	C.2	1	LIG1	0.000	
22	 C46	-5.293	-0.035	-20.596	C.2	1	LIG1	0.000	
23	 N47	-9.259	4.447	-23.639	N.pl3	1	LIG1	0.000	
24	 N48	-7.228	-1.218	-21.451	N.pl3	1	LIG1	0.000	
25	 N49	-9.168	1.086	-24.060	N.pl3	1	LIG1	0.000	
26	 C50	-10.021	5.627	-23.976	C.3	1	LIG1	0.000	
27	 C51	-8.419	2.291	-24.047	C.3	1	LIG1	0.000	
28	 C52	-7.918	-3.055	-24.600	C.3	1	LIG1	0.000	
29	 C53	-6.940	-2.366	-22.271	C.3	1	LIG1	0.000	
30	 C54	-8.417	-0.128	-24.320	C.3	1	LIG1	0.000	
31	 C55	-8.013	-2.416	-23.296	C.3	1	LIG1	0.000	
32	 C56	-8.803	-1.161	-23.220	C.3	1	LIG1	0.000	
@<TRIPOS>BOND
1 4 17 ar
2 1 5 2
3 2 6 2
4 6 27 1
5 3 7 2
6 7 24 1
7 4 8 ar
8 9 11 ar
9 9 10 ar
10 11 15 ar
11 10 12 ar
12 13 14 ar
13 14 19 ar
14 5 15 1
15 12 16 ar
16 15 16 ar
17 17 21 ar
18 13 18 ar
19 19 22 ar
20 8 20 ar
21 20 22 ar
22 18 21 ar
23 21 22 ar
24 6 23 1
25 20 24 1
26 24 29 1
27 5 25 1
28 25 30 1
29 23 26 1
30 25 27 1
31 29 31 1
32 30 32 1
33 28 31 1
34 7 32 1
35 16 32 1
36 31 32 1
@<TRIPOS>SUBSTRUCTURE
1	LIG1	1	GROUP	1 C	LIG
