# created with PyMOL 3.1.3.1
@<TRIPOS>MOLECULE
predicted
30 34 1                 
SMALL
USER_CHARGES
@<TRIPOS>ATOM
1	 O19	-5.754	-2.917	-21.771	O.2	1	LIG1	0.000	
2	 O20	-8.353	0.734	-21.219	O.2	1	LIG1	0.000	
3	 O21	-11.831	1.569	-24.246	O.2	1	LIG1	0.000	
4	 O22	-10.672	0.369	-25.994	O.2	1	LIG1	0.000	
5	 N23	-5.973	-0.326	-17.703	N.2	1	LIG1	0.000	
6	 C24	-6.603	-2.075	-21.988	C.2	1	LIG1	0.000	
7	 C25	-7.879	-0.294	-21.722	C.2	1	LIG1	0.000	
8	 C26	-6.618	-0.755	-18.771	C.2	1	LIG1	0.000	
9	 C27	-13.634	-3.174	-23.686	C.2	1	LIG1	0.000	
10	 C28	-13.370	-2.226	-22.704	C.2	1	LIG1	0.000	
11	 C29	-13.119	-3.006	-24.946	C.2	1	LIG1	0.000	
12	 C30	-12.634	-1.115	-23.015	C.2	1	LIG1	0.000	
13	 C31	-12.340	-1.900	-25.245	C.2	1	LIG1	0.000	
14	 C32	-2.689	1.666	-20.566	C.2	1	LIG1	0.000	
15	 C33	-3.325	1.190	-21.689	C.2	1	LIG1	0.000	
16	 C34	-12.100	-0.982	-24.272	C.2	1	LIG1	0.000	
17	 C35	-4.826	0.338	-17.863	C.2	1	LIG1	0.000	
18	 C36	-3.167	1.406	-19.321	C.2	1	LIG1	0.000	
19	 C37	-4.454	0.448	-21.555	C.2	1	LIG1	0.000	
20	 C38	-6.111	-0.632	-20.051	C.2	1	LIG1	0.000	
21	 C39	-4.303	0.642	-19.146	C.2	1	LIG1	0.000	
22	 C40	-4.963	0.168	-20.273	C.2	1	LIG1	0.000	
23	 N41	-6.821	-1.000	-21.187	N.pl3	1	LIG1	0.000	
24	 N42	-7.441	-2.073	-22.997	N.pl3	1	LIG1	0.000	
25	 N43	-9.906	0.227	-23.652	N.3	1	LIG1	0.000	
26	 C44	-7.466	-3.051	-24.069	C.3	1	LIG1	0.000	
27	 C45	-9.722	-1.212	-22.984	C.3	1	LIG1	0.000	
28	 C46	-8.396	-0.010	-24.080	C.3	1	LIG1	0.000	
29	 C47	-8.301	-0.970	-22.931	C.3	1	LIG1	0.000	
30	 S48	-11.151	0.350	-24.608	S.O2	1	LIG1	0.000	
@<TRIPOS>BOND
1 5 17 ar
2 1 6 2
3 6 23 1
4 2 7 2
5 7 29 1
6 5 8 ar
7 9 11 ar
8 9 10 ar
9 11 13 ar
10 10 12 ar
11 14 15 ar
12 15 19 ar
13 12 16 ar
14 13 16 ar
15 17 21 ar
16 14 18 ar
17 19 22 ar
18 8 20 ar
19 20 22 ar
20 18 21 ar
21 21 22 ar
22 7 23 1
23 20 23 1
24 6 24 1
25 24 29 1
26 25 28 1
27 25 30 1
28 24 26 1
29 25 27 1
30 27 29 1
31 28 29 1
32 3 30 2
33 4 30 2
34 16 30 1
@<TRIPOS>SUBSTRUCTURE
1	LIG1	1	GROUP	1 C	LIG
