# created with PyMOL 3.1.3.1
@<TRIPOS>MOLECULE
predicted
37 43 1                 
SMALL
USER_CHARGES
@<TRIPOS>ATOM
1	CL33	-13.876	-3.679	-22.261	Cl	1	LIG1	0.000	
2	 O31	-10.957	2.114	-23.905	O.2	1	LIG1	0.000	
3	 O32	-9.135	0.215	-21.066	O.2	1	LIG1	0.000	
4	 N34	-6.675	-0.895	-17.595	N.2	1	LIG1	0.000	
5	 O35	-7.274	6.463	-22.065	O.3	1	LIG1	0.000	
6	 C36	-10.483	0.982	-23.801	C.2	1	LIG1	0.000	
7	 C37	-8.712	-0.821	-21.564	C.2	1	LIG1	0.000	
8	 C38	-7.347	-1.337	-18.645	C.2	1	LIG1	0.000	
9	 C39	-13.431	-1.159	-23.064	C.2	1	LIG1	0.000	
10	 C40	-12.671	-0.080	-23.393	C.2	1	LIG1	0.000	
11	 C41	-11.444	-2.422	-22.547	C.2	1	LIG1	0.000	
12	 C42	-3.419	1.113	-20.521	C.2	1	LIG1	0.000	
13	 C43	-4.100	0.642	-21.628	C.2	1	LIG1	0.000	
14	 C44	-12.840	-2.320	-22.634	C.2	1	LIG1	0.000	
15	 C45	-11.303	-0.168	-23.377	C.2	1	LIG1	0.000	
16	 C46	-10.662	-1.358	-22.982	C.2	1	LIG1	0.000	
17	 C47	-5.544	-0.214	-17.779	C.2	1	LIG1	0.000	
18	 C48	-3.892	0.827	-19.250	C.2	1	LIG1	0.000	
19	 C49	-5.235	-0.087	-21.467	C.2	1	LIG1	0.000	
20	 C50	-6.935	-1.114	-19.958	C.2	1	LIG1	0.000	
21	 C51	-5.044	0.090	-19.059	C.2	1	LIG1	0.000	
22	 C52	-5.742	-0.367	-20.189	C.2	1	LIG1	0.000	
23	 N53	-7.692	-1.535	-21.043	N.pl3	1	LIG1	0.000	
24	 N54	-9.113	0.802	-23.990	N.pl3	1	LIG1	0.000	
25	 C55	-8.296	1.903	-24.350	C.3	1	LIG1	0.000	
26	 C56	-8.295	-3.480	-24.065	C.3	1	LIG1	0.000	
27	 C57	-7.505	-2.749	-21.759	C.3	1	LIG1	0.000	
28	 C58	-6.774	5.302	-21.307	C.3	1	LIG1	0.000	
29	 C59	-5.614	5.268	-23.107	C.3	1	LIG1	0.000	
30	 C60	-8.549	-0.519	-24.004	C.3	1	LIG1	0.000	
31	 C61	-7.824	2.598	-23.070	C.3	1	LIG1	0.000	
32	 C62	-8.000	4.984	-23.684	C.3	1	LIG1	0.000	
33	 C63	-6.966	6.085	-23.340	C.3	1	LIG1	0.000	
34	 C64	-8.598	-2.771	-22.820	C.3	1	LIG1	0.000	
35	 C65	-6.270	4.305	-22.257	C.3	1	LIG1	0.000	
36	 C66	-9.173	-1.390	-22.889	C.3	1	LIG1	0.000	
37	 N67	-7.345	3.832	-23.213	N.3	1	LIG1	0.000	
@<TRIPOS>BOND
1 4 17 ar
2 2 6 2
3 6 15 1
4 3 7 2
5 7 36 1
6 4 8 ar
7 9 14 ar
8 9 10 ar
9 11 16 ar
10 12 13 ar
11 13 19 ar
12 1 14 1
13 11 14 ar
14 10 15 ar
15 15 16 ar
16 17 21 ar
17 12 18 ar
18 19 22 ar
19 8 20 ar
20 20 22 ar
21 18 21 ar
22 21 22 ar
23 7 23 1
24 20 23 1
25 6 24 1
26 24 25 1
27 25 31 1
28 26 34 1
29 23 27 1
30 5 28 1
31 29 35 1
32 24 30 1
33 31 37 1
34 32 33 1
35 5 33 1
36 29 33 1
37 27 34 1
38 34 36 1
39 28 35 1
40 16 36 1
41 30 36 1
42 32 37 1
43 35 37 1
@<TRIPOS>SUBSTRUCTURE
1	LIG1	1	GROUP	1 C	LIG
