# created with PyMOL 3.1.3.1
@<TRIPOS>MOLECULE
predicted
38 43 1                 
SMALL
USER_CHARGES
@<TRIPOS>ATOM
1	CL26	13.361	-1.891	22.101	Cl	1	LIG1	0.000	
2	 O23	10.296	3.833	23.505	O.2	1	LIG1	0.000	
3	 O24	5.751	3.955	22.943	O.2	1	LIG1	0.000	
4	 O25	8.547	1.684	20.771	O.2	1	LIG1	0.000	
5	 N27	5.630	-4.317	24.505	N.2	1	LIG1	0.000	
6	 N28	6.711	-3.831	23.844	N.2	1	LIG1	0.000	
7	 N29	6.208	-2.465	25.480	N.2	1	LIG1	0.000	
8	 N30	6.168	0.122	17.374	N.2	1	LIG1	0.000	
9	 N31	5.329	-3.471	25.492	N.2	1	LIG1	0.000	
10	 C32	9.854	2.681	23.478	C.2	1	LIG1	0.000	
11	 C33	6.906	4.183	23.052	C.2	1	LIG1	0.000	
12	 C34	8.160	0.672	21.333	C.2	1	LIG1	0.000	
13	 C35	7.034	-2.724	24.449	C.2	1	LIG1	0.000	
14	 C36	6.867	-0.185	18.454	C.2	1	LIG1	0.000	
15	 C37	12.871	0.612	22.825	C.2	1	LIG1	0.000	
16	 C38	12.076	1.680	23.111	C.2	1	LIG1	0.000	
17	 C39	10.937	-0.757	22.404	C.2	1	LIG1	0.000	
18	 C40	2.738	2.058	20.134	C.2	1	LIG1	0.000	
19	 C41	3.440	1.750	21.274	C.2	1	LIG1	0.000	
20	 C42	12.315	-0.605	22.454	C.2	1	LIG1	0.000	
21	 C43	10.703	1.549	23.103	C.2	1	LIG1	0.000	
22	 C44	10.118	0.299	22.775	C.2	1	LIG1	0.000	
23	 C45	4.989	0.726	17.501	C.2	1	LIG1	0.000	
24	 C46	3.249	1.720	18.883	C.2	1	LIG1	0.000	
25	 C47	4.637	1.110	21.185	C.2	1	LIG1	0.000	
26	 C48	6.419	0.135	19.748	C.2	1	LIG1	0.000	
27	 C49	4.453	1.082	18.756	C.2	1	LIG1	0.000	
28	 C50	5.167	0.775	19.924	C.2	1	LIG1	0.000	
29	 N51	7.535	4.948	22.156	N.pl3	1	LIG1	0.000	
30	 N52	7.192	-0.153	20.859	N.pl3	1	LIG1	0.000	
31	 N53	8.494	2.450	23.736	N.pl3	1	LIG1	0.000	
32	 C54	6.865	5.651	21.138	C.3	1	LIG1	0.000	
33	 C55	7.682	3.555	24.150	C.3	1	LIG1	0.000	
34	 C56	8.154	-1.791	24.054	C.3	1	LIG1	0.000	
35	 C57	7.072	-1.323	21.666	C.3	1	LIG1	0.000	
36	 C58	7.953	1.089	23.799	C.3	1	LIG1	0.000	
37	 C59	8.102	-1.207	22.737	C.3	1	LIG1	0.000	
38	 C60	8.623	0.194	22.686	C.3	1	LIG1	0.000	
@<TRIPOS>BOND
1 5 9 ar
2 5 6 ar
3 8 23 ar
4 7 9 ar
5 2 10 2
6 3 11 2
7 11 33 1
8 4 12 2
9 12 30 1
10 6 13 ar
11 7 13 ar
12 8 14 ar
13 15 16 ar
14 16 21 ar
15 17 20 ar
16 18 19 ar
17 19 25 ar
18 1 20 1
19 15 20 ar
20 10 21 1
21 17 22 ar
22 21 22 ar
23 23 27 ar
24 18 24 ar
25 25 28 ar
26 14 26 ar
27 26 28 ar
28 24 27 ar
29 27 28 ar
30 11 29 1
31 26 30 1
32 30 35 1
33 10 31 1
34 31 36 1
35 29 32 1
36 31 33 1
37 13 34 1
38 35 37 1
39 36 38 1
40 34 37 1
41 12 38 1
42 22 38 1
43 37 38 1
@<TRIPOS>SUBSTRUCTURE
1	LIG1	1	GROUP	1 C	LIG
