# created with PyMOL 3.1.3.1
@<TRIPOS>MOLECULE
predicted
34 40 1                 
SMALL
USER_CHARGES
@<TRIPOS>ATOM
1	CL33	-13.305	-2.914	-21.078	Cl	1	LIG1	0.000	
2	 O32	-8.405	0.621	-21.106	O.2	1	LIG1	0.000	
3	 N34	-6.191	-0.656	-17.662	N.2	1	LIG1	0.000	
4	 O35	-13.184	5.633	-22.510	O.3	1	LIG1	0.000	
5	 C36	-8.256	-0.441	-21.696	C.2	1	LIG1	0.000	
6	 C37	-6.928	-1.169	-18.676	C.2	1	LIG1	0.000	
7	 C38	-12.447	-2.551	-24.907	C.2	1	LIG1	0.000	
8	 C39	-13.121	-2.780	-23.728	C.2	1	LIG1	0.000	
9	 C40	-11.098	-2.233	-24.838	C.2	1	LIG1	0.000	
10	 C41	-11.100	-2.345	-22.456	C.2	1	LIG1	0.000	
11	 C42	-3.106	1.160	-20.755	C.2	1	LIG1	0.000	
12	 C43	-3.840	0.658	-21.809	C.2	1	LIG1	0.000	
13	 C44	-12.438	-2.663	-22.517	C.2	1	LIG1	0.000	
14	 C45	-10.439	-2.188	-23.612	C.2	1	LIG1	0.000	
15	 C46	-5.099	-0.011	-17.895	C.2	1	LIG1	0.000	
16	 C47	-3.523	0.947	-19.456	C.2	1	LIG1	0.000	
17	 C48	-4.985	-0.047	-21.594	C.2	1	LIG1	0.000	
18	 C49	-6.581	-1.055	-20.004	C.2	1	LIG1	0.000	
19	 C50	-4.661	0.210	-19.208	C.2	1	LIG1	0.000	
20	 C51	-5.416	-0.298	-20.290	C.2	1	LIG1	0.000	
21	 N52	-8.760	-0.545	-22.957	N.pl3	1	LIG1	0.000	
22	 C53	-7.507	-1.605	-21.106	C.3	1	LIG1	0.000	
23	 C54	-8.934	-1.881	-23.597	C.3	1	LIG1	0.000	
24	 C55	-12.707	5.479	-23.789	C.3	1	LIG1	0.000	
25	 C56	-12.805	4.143	-22.238	C.3	1	LIG1	0.000	
26	 C57	-12.311	3.967	-23.604	C.3	1	LIG1	0.000	
27	 C58	-9.014	0.532	-25.212	C.3	1	LIG1	0.000	
28	 C59	-8.775	1.998	-25.632	C.3	1	LIG1	0.000	
29	 C60	-8.208	1.820	-23.434	C.3	1	LIG1	0.000	
30	 C61	-10.861	3.854	-23.853	C.2	1	LIG1	0.000	
31	 C62	-10.427	1.311	-23.384	C.3	1	LIG1	0.000	
32	 C63	-9.142	0.639	-23.682	C.3	1	LIG1	0.000	
33	 C64	-8.814	2.786	-24.348	C.3	1	LIG1	0.000	
34	 N65	-10.264	2.654	-23.794	N.pl3	1	LIG1	0.000	
@<TRIPOS>BOND
1 2 5 2
2 3 15 ar
3 4 25 1
4 5 21 1
5 5 22 1
6 3 6 ar
7 7 8 ar
8 8 13 ar
9 7 9 ar
10 11 12 ar
11 12 17 ar
12 1 13 1
13 10 13 ar
14 9 14 ar
15 10 14 ar
16 15 19 ar
17 11 16 ar
18 17 20 ar
19 6 18 ar
20 18 20 ar
21 16 19 ar
22 19 20 ar
23 21 23 1
24 21 32 1
25 18 22 1
26 14 23 1
27 4 24 1
28 24 25 1
29 24 26 1
30 25 26 1
31 27 28 1
32 28 33 1
33 26 30 1
34 27 32 1
35 29 32 1
36 31 32 1
37 29 33 1
38 33 34 1
39 30 34 2
40 31 34 1
@<TRIPOS>SUBSTRUCTURE
1	LIG1	1	GROUP	1 C	LIG
