# created with PyMOL 3.1.3.1
@<TRIPOS>MOLECULE
predicted
40 45 1                 
SMALL
USER_CHARGES
@<TRIPOS>ATOM
1	CL30	-13.157	-3.108	-21.883	Cl	1	LIG1	0.000	
2	 O27	-10.576	2.457	-24.432	O.2	1	LIG1	0.000	
3	 O28	-6.179	3.606	-24.544	O.2	1	LIG1	0.000	
4	 O29	-8.534	0.765	-21.440	O.2	1	LIG1	0.000	
5	 N31	-7.104	-5.727	-27.934	N.2	1	LIG1	0.000	
6	 N32	-8.723	-5.555	-25.736	N.2	1	LIG1	0.000	
7	 N33	-6.135	-0.558	-17.870	N.2	1	LIG1	0.000	
8	 C34	-10.046	1.339	-24.260	C.2	1	LIG1	0.000	
9	 C35	-7.108	3.050	-24.142	C.2	1	LIG1	0.000	
10	 C36	-8.121	-0.283	-21.902	C.2	1	LIG1	0.000	
11	 C37	-8.168	-6.529	-27.809	C.2	1	LIG1	0.000	
12	 C38	-8.994	-6.419	-26.682	C.2	1	LIG1	0.000	
13	 C39	-6.846	-4.809	-26.991	C.2	1	LIG1	0.000	
14	 C40	-6.814	-0.964	-18.944	C.2	1	LIG1	0.000	
15	 C41	-7.694	-4.693	-25.876	C.2	1	LIG1	0.000	
16	 C42	-12.895	-0.737	-23.063	C.2	1	LIG1	0.000	
17	 C43	-12.177	0.296	-23.606	C.2	1	LIG1	0.000	
18	 C44	-10.849	-1.920	-22.576	C.2	1	LIG1	0.000	
19	 C45	-2.798	1.445	-20.725	C.2	1	LIG1	0.000	
20	 C46	-3.471	1.019	-21.862	C.2	1	LIG1	0.000	
21	 C47	-12.232	-1.852	-22.540	C.2	1	LIG1	0.000	
22	 C48	-10.806	0.233	-23.670	C.2	1	LIG1	0.000	
23	 C49	-10.130	-0.907	-23.201	C.2	1	LIG1	0.000	
24	 C50	-4.984	0.107	-18.030	C.2	1	LIG1	0.000	
25	 C51	-3.293	1.147	-19.447	C.2	1	LIG1	0.000	
26	 C52	-4.635	0.317	-21.740	C.2	1	LIG1	0.000	
27	 C53	-6.373	-0.700	-20.259	C.2	1	LIG1	0.000	
28	 C54	-4.461	0.432	-19.300	C.2	1	LIG1	0.000	
29	 C55	-5.149	0.017	-20.461	C.2	1	LIG1	0.000	
30	 N56	-7.339	3.175	-22.858	N.pl3	1	LIG1	0.000	
31	 N57	-7.429	-3.737	-24.983	N.pl3	1	LIG1	0.000	
32	 N58	-7.135	-1.068	-21.348	N.pl3	1	LIG1	0.000	
33	 N59	-8.702	1.182	-24.498	N.pl3	1	LIG1	0.000	
34	 C60	-6.474	3.949	-21.997	C.3	1	LIG1	0.000	
35	 C61	-7.962	2.247	-25.089	C.3	1	LIG1	0.000	
36	 C62	-8.394	-3.201	-24.099	C.3	1	LIG1	0.000	
37	 C63	-7.009	-2.324	-22.040	C.3	1	LIG1	0.000	
38	 C64	-8.080	-0.118	-24.399	C.3	1	LIG1	0.000	
39	 C65	-8.003	-2.298	-23.119	C.3	1	LIG1	0.000	
40	 C66	-8.619	-0.917	-23.184	C.3	1	LIG1	0.000	
@<TRIPOS>BOND
1 5 11 ar
2 7 24 ar
3 2 8 2
4 3 9 2
5 9 35 1
6 4 10 2
7 10 32 1
8 11 12 ar
9 6 12 ar
10 5 13 ar
11 7 14 ar
12 6 15 ar
13 13 15 ar
14 16 17 ar
15 17 22 ar
16 18 21 ar
17 19 20 ar
18 20 26 ar
19 1 21 1
20 16 21 ar
21 8 22 1
22 18 23 ar
23 22 23 ar
24 24 28 ar
25 19 25 ar
26 26 29 ar
27 14 27 ar
28 27 29 ar
29 25 28 ar
30 28 29 ar
31 9 30 1
32 15 31 1
33 27 32 1
34 32 37 1
35 8 33 1
36 33 38 1
37 30 34 1
38 33 35 1
39 31 36 1
40 37 39 1
41 38 40 1
42 36 39 1
43 10 40 1
44 23 40 1
45 39 40 1
@<TRIPOS>SUBSTRUCTURE
1	LIG1	1	GROUP	1 C	LIG
