# created with PyMOL 3.1.3.1
@<TRIPOS>MOLECULE
predicted
33 37 1                 
SMALL
USER_CHARGES
@<TRIPOS>ATOM
1	CL31	13.752	-2.129	21.890	Cl	1	LIG1	0.000	
2	 O29	10.505	3.412	23.651	O.2	1	LIG1	0.000	
3	 O30	8.768	1.364	20.827	O.2	1	LIG1	0.000	
4	 N32	6.347	0.042	17.432	N.2	1	LIG1	0.000	
5	 C33	10.095	2.250	23.556	C.2	1	LIG1	0.000	
6	 C34	8.401	0.325	21.360	C.2	1	LIG1	0.000	
7	 C35	7.056	-0.340	18.486	C.2	1	LIG1	0.000	
8	 C36	13.174	0.327	22.745	C.2	1	LIG1	0.000	
9	 C37	12.355	1.346	23.115	C.2	1	LIG1	0.000	
10	 C38	11.258	-1.067	22.271	C.2	1	LIG1	0.000	
11	 C39	2.986	1.858	20.327	C.2	1	LIG1	0.000	
12	 C40	3.691	1.461	21.443	C.2	1	LIG1	0.000	
13	 C41	12.631	-0.862	22.316	C.2	1	LIG1	0.000	
14	 C42	10.983	1.166	23.120	C.2	1	LIG1	0.000	
15	 C43	10.414	-0.068	22.746	C.2	1	LIG1	0.000	
16	 C44	5.178	0.650	17.606	C.2	1	LIG1	0.000	
17	 C45	3.472	1.586	19.057	C.2	1	LIG1	0.000	
18	 C46	4.865	0.806	21.300	C.2	1	LIG1	0.000	
19	 C47	6.618	-0.127	19.797	C.2	1	LIG1	0.000	
20	 C48	4.668	0.933	18.886	C.2	1	LIG1	0.000	
21	 C49	5.385	0.542	20.018	C.2	1	LIG1	0.000	
22	 N50	7.412	-0.460	20.888	N.pl3	1	LIG1	0.000	
23	 N51	8.735	1.997	23.752	N.pl3	1	LIG1	0.000	
24	 C52	7.861	3.041	24.134	C.3	1	LIG1	0.000	
25	 C53	8.230	-2.336	23.907	C.3	1	LIG1	0.000	
26	 C54	7.289	-1.651	21.646	C.3	1	LIG1	0.000	
27	 C55	8.263	0.625	23.807	C.3	1	LIG1	0.000	
28	 C56	6.337	5.551	21.810	C.3	1	LIG1	0.000	
29	 C57	5.390	4.567	23.796	C.3	1	LIG1	0.000	
30	 C58	7.380	3.710	22.837	C.3	1	LIG1	0.000	
31	 C59	8.428	-1.606	22.640	C.3	1	LIG1	0.000	
32	 C60	8.925	-0.203	22.683	C.3	1	LIG1	0.000	
33	 N61	6.586	4.864	23.049	N.3	1	LIG1	0.000	
@<TRIPOS>BOND
1 4 16 ar
2 2 5 2
3 5 14 1
4 3 6 2
5 6 32 1
6 4 7 ar
7 8 13 ar
8 8 9 ar
9 10 15 ar
10 11 12 ar
11 12 18 ar
12 1 13 1
13 10 13 ar
14 9 14 ar
15 14 15 ar
16 16 20 ar
17 11 17 ar
18 18 21 ar
19 7 19 ar
20 19 21 ar
21 17 20 ar
22 20 21 ar
23 6 22 1
24 19 22 1
25 5 23 1
26 23 24 1
27 24 30 1
28 25 31 1
29 22 26 1
30 23 27 1
31 30 33 1
32 26 31 1
33 31 32 1
34 15 32 1
35 27 32 1
36 28 33 1
37 29 33 1
@<TRIPOS>SUBSTRUCTURE
1	LIG1	1	GROUP	1 C	LIG
