# created with PyMOL 3.1.3.1
@<TRIPOS>MOLECULE
predicted
23 26 1                 
SMALL
USER_CHARGES
@<TRIPOS>ATOM
1	 O18	6.494	-3.430	21.635	O.2	1	LIG1	0.000	
2	 O19	9.053	0.264	21.445	O.2	1	LIG1	0.000	
3	 N20	6.476	-0.480	17.895	N.2	1	LIG1	0.000	
4	 O21	9.986	-0.857	25.122	O.3	1	LIG1	0.000	
5	 C22	7.366	-2.676	21.931	C.2	1	LIG1	0.000	
6	 C23	8.666	-0.832	21.845	C.2	1	LIG1	0.000	
7	 C24	7.185	-0.993	18.898	C.2	1	LIG1	0.000	
8	 C25	3.133	0.964	20.979	C.2	1	LIG1	0.000	
9	 C26	3.842	0.441	22.033	C.2	1	LIG1	0.000	
10	 C27	5.314	0.095	18.127	C.2	1	LIG1	0.000	
11	 C28	3.604	0.874	19.699	C.2	1	LIG1	0.000	
12	 C29	5.023	-0.185	21.823	C.2	1	LIG1	0.000	
13	 C30	6.761	-0.962	20.211	C.2	1	LIG1	0.000	
14	 C31	4.797	0.232	19.431	C.2	1	LIG1	0.000	
15	 C32	5.530	-0.306	20.506	C.2	1	LIG1	0.000	
16	 N33	7.565	-1.482	21.293	N.pl3	1	LIG1	0.000	
17	 N34	8.272	-2.819	22.896	N.pl3	1	LIG1	0.000	
18	 C35	8.984	-0.931	24.253	C.3	1	LIG1	0.000	
19	 C36	13.009	-2.179	23.294	C.3	1	LIG1	0.000	
20	 C37	11.345	-1.107	24.821	C.3	1	LIG1	0.000	
21	 C38	10.605	-2.092	22.669	C.3	1	LIG1	0.000	
22	 C39	9.193	-1.698	22.946	C.3	1	LIG1	0.000	
23	 C40	11.619	-1.967	23.704	C.3	1	LIG1	0.000	
@<TRIPOS>BOND
1 3 10 ar
2 4 18 1
3 1 5 2
4 5 16 1
5 2 6 2
6 3 7 ar
7 8 9 ar
8 9 12 ar
9 10 14 ar
10 8 11 ar
11 12 15 ar
12 7 13 ar
13 13 15 ar
14 11 14 ar
15 14 15 ar
16 6 16 1
17 13 16 1
18 5 17 1
19 18 22 1
20 19 23 1
21 4 20 1
22 6 22 1
23 17 22 1
24 21 22 1
25 20 23 1
26 21 23 1
@<TRIPOS>SUBSTRUCTURE
1	LIG1	1	GROUP	1 C	LIG
