# created with PyMOL 3.1.3.1
@<TRIPOS>MOLECULE
predicted
32 36 1                 
SMALL
USER_CHARGES
@<TRIPOS>ATOM
1	 O27	10.569	3.216	23.598	O.2	1	LIG1	0.000	
2	 O28	8.756	1.238	20.816	O.2	1	LIG1	0.000	
3	 N30	6.230	-0.037	17.437	N.2	1	LIG1	0.000	
4	 C31	10.118	2.068	23.507	C.2	1	LIG1	0.000	
5	 C32	8.374	0.207	21.333	C.2	1	LIG1	0.000	
6	 C33	6.965	-0.412	18.470	C.2	1	LIG1	0.000	
7	 C34	13.145	0.037	22.805	C.2	1	LIG1	0.000	
8	 C35	12.352	1.092	23.130	C.2	1	LIG1	0.000	
9	 C36	11.212	-1.303	22.300	C.2	1	LIG1	0.000	
10	 C37	2.924	1.786	20.425	C.2	1	LIG1	0.000	
11	 C38	3.661	1.393	21.515	C.2	1	LIG1	0.000	
12	 C39	12.598	-1.151	22.395	C.2	1	LIG1	0.000	
13	 C40	10.978	0.960	23.104	C.2	1	LIG1	0.000	
14	 C41	10.383	-0.260	22.719	C.2	1	LIG1	0.000	
15	 C42	5.059	0.569	17.627	C.2	1	LIG1	0.000	
16	 C43	3.381	1.512	19.141	C.2	1	LIG1	0.000	
17	 C44	4.837	0.739	21.330	C.2	1	LIG1	0.000	
18	 C45	6.557	-0.200	19.789	C.2	1	LIG1	0.000	
19	 C46	4.580	0.859	18.926	C.2	1	LIG1	0.000	
20	 C47	5.330	0.469	20.043	C.2	1	LIG1	0.000	
21	 N48	7.357	-0.562	20.854	N.pl3	1	LIG1	0.000	
22	 N49	8.745	1.831	23.710	N.pl3	1	LIG1	0.000	
23	 C50	7.870	2.893	24.089	C.3	1	LIG1	0.000	
24	 C51	8.189	-2.479	23.869	C.3	1	LIG1	0.000	
25	 C52	7.211	-1.764	21.614	C.3	1	LIG1	0.000	
26	 C53	8.235	0.484	23.769	C.3	1	LIG1	0.000	
27	 C54	7.018	5.609	21.796	C.3	1	LIG1	0.000	
28	 C55	7.279	3.451	22.794	C.3	1	LIG1	0.000	
29	 C56	8.340	-1.747	22.611	C.3	1	LIG1	0.000	
30	 C57	8.879	-0.350	22.647	C.3	1	LIG1	0.000	
31	 N58	6.969	4.820	22.936	N.3	1	LIG1	0.000	
32	 F29	13.425	-2.152	22.082	 F	1	LIG1	0.000	
@<TRIPOS>BOND
1 3 15 ar
2 1 4 2
3 2 5 2
4 5 21 1
5 3 6 ar
6 7 8 ar
7 8 13 ar
8 9 12 ar
9 10 11 ar
10 11 17 ar
11 7 12 ar
12 12 32 1
13 4 13 1
14 9 14 ar
15 13 14 ar
16 15 19 ar
17 10 16 ar
18 17 20 ar
19 6 18 ar
20 18 20 ar
21 16 19 ar
22 19 20 ar
23 18 21 1
24 21 25 1
25 4 22 1
26 22 26 1
27 22 23 1
28 25 29 1
29 26 30 1
30 27 31 1
31 23 28 1
32 24 29 1
33 5 30 1
34 14 30 1
35 29 30 1
36 28 31 1
@<TRIPOS>SUBSTRUCTURE
1	LIG1	1	GROUP	1 C	LIG
