# created with PyMOL 3.1.3.1
@<TRIPOS>MOLECULE
predicted
22 24 1                 
SMALL
USER_CHARGES
@<TRIPOS>ATOM
1	 O19	-8.375	0.479	-21.263	O.2	1	LIG1	0.000	
2	 N22	-6.101	-0.565	-17.753	N.2	1	LIG1	0.000	
3	 C23	-8.244	-0.626	-21.712	C.2	1	LIG1	0.000	
4	 C24	-6.786	-1.102	-18.760	C.2	1	LIG1	0.000	
5	 C25	-2.988	1.285	-20.797	C.2	1	LIG1	0.000	
6	 C26	-3.665	0.768	-21.846	C.2	1	LIG1	0.000	
7	 C27	-5.028	0.105	-17.963	C.2	1	LIG1	0.000	
8	 C28	-3.420	1.086	-19.511	C.2	1	LIG1	0.000	
9	 C29	-4.794	0.048	-21.646	C.2	1	LIG1	0.000	
10	 C30	-6.389	-0.960	-20.028	C.2	1	LIG1	0.000	
11	 C31	-4.546	0.352	-19.254	C.2	1	LIG1	0.000	
12	 C32	-5.245	-0.195	-20.350	C.2	1	LIG1	0.000	
13	 N33	-8.993	-0.994	-22.794	N.pl3	1	LIG1	0.000	
14	 C34	-7.238	-1.571	-21.139	C.3	1	LIG1	0.000	
15	 C35	-12.873	-2.182	-23.837	C.3	1	LIG1	0.000	
16	 C36	-9.057	-2.339	-23.286	C.3	1	LIG1	0.000	
17	 C37	-9.773	0.015	-23.505	C.3	1	LIG1	0.000	
18	 C38	-10.528	-2.763	-23.196	C.3	1	LIG1	0.000	
19	 C39	-11.222	-0.396	-23.424	C.3	1	LIG1	0.000	
20	 C40	-11.422	-1.783	-23.885	C.3	1	LIG1	0.000	
21	 F20	-13.092	-3.398	-23.880	 F	1	LIG1	0.000	
22	 F21	-13.623	-1.247	-23.415	 F	1	LIG1	0.000	
@<TRIPOS>BOND
1 1 3 2
2 2 7 ar
3 3 13 1
4 3 14 1
5 2 4 ar
6 5 6 ar
7 6 9 ar
8 7 11 ar
9 5 8 ar
10 9 12 ar
11 4 10 ar
12 10 12 ar
13 8 11 ar
14 11 12 ar
15 13 16 1
16 13 17 1
17 10 14 1
18 15 21 1
19 15 22 1
20 16 18 1
21 18 20 1
22 17 19 1
23 15 20 1
24 19 20 1
@<TRIPOS>SUBSTRUCTURE
1	LIG1	1	GROUP	1 C	LIG
