# created with PyMOL 3.1.3.1
@<TRIPOS>MOLECULE
predicted
40 45 1                 
SMALL
USER_CHARGES
@<TRIPOS>ATOM
1	CL30	-13.287	-3.236	-21.900	Cl	1	LIG1	0.000	
2	 O27	-10.811	2.410	-24.381	O.2	1	LIG1	0.000	
3	 O28	-5.980	2.428	-24.487	O.2	1	LIG1	0.000	
4	 O29	-8.684	0.662	-21.495	O.2	1	LIG1	0.000	
5	 N31	-7.214	-5.893	-28.378	N.2	1	LIG1	0.000	
6	 N32	-8.131	-4.290	-26.931	N.2	1	LIG1	0.000	
7	 N33	-6.284	-0.672	-17.975	N.2	1	LIG1	0.000	
8	 C34	-10.273	1.289	-24.246	C.2	1	LIG1	0.000	
9	 C35	-7.099	2.685	-24.210	C.2	1	LIG1	0.000	
10	 C36	-8.297	-0.386	-21.973	C.2	1	LIG1	0.000	
11	 C37	-8.003	-4.831	-28.127	C.2	1	LIG1	0.000	
12	 C38	-6.632	-6.466	-27.363	C.2	1	LIG1	0.000	
13	 C39	-6.975	-1.071	-19.046	C.2	1	LIG1	0.000	
14	 C40	-7.565	-4.841	-25.863	C.2	1	LIG1	0.000	
15	 C41	-6.745	-5.947	-26.038	C.2	1	LIG1	0.000	
16	 C42	-13.082	-0.835	-23.022	C.2	1	LIG1	0.000	
17	 C43	-12.392	0.217	-23.559	C.2	1	LIG1	0.000	
18	 C44	-11.004	-2.023	-22.620	C.2	1	LIG1	0.000	
19	 C45	-2.974	1.335	-20.858	C.2	1	LIG1	0.000	
20	 C46	-3.653	0.912	-21.991	C.2	1	LIG1	0.000	
21	 C47	-12.392	-1.963	-22.546	C.2	1	LIG1	0.000	
22	 C48	-11.011	0.164	-23.655	C.2	1	LIG1	0.000	
23	 C49	-10.322	-0.995	-23.241	C.2	1	LIG1	0.000	
24	 C50	-5.138	-0.013	-18.140	C.2	1	LIG1	0.000	
25	 C51	-3.458	1.027	-19.576	C.2	1	LIG1	0.000	
26	 C52	-4.810	0.208	-21.861	C.2	1	LIG1	0.000	
27	 C53	-6.541	-0.815	-20.363	C.2	1	LIG1	0.000	
28	 C54	-4.631	0.316	-19.418	C.2	1	LIG1	0.000	
29	 C55	-5.320	-0.090	-20.573	C.2	1	LIG1	0.000	
30	 N56	-7.422	3.290	-23.059	N.pl3	1	LIG1	0.000	
31	 N57	-7.712	-4.297	-24.639	N.pl3	1	LIG1	0.000	
32	 N58	-7.312	-1.171	-21.448	N.pl3	1	LIG1	0.000	
33	 N59	-8.933	1.145	-24.541	N.pl3	1	LIG1	0.000	
34	 C60	-6.415	3.739	-22.152	C.3	1	LIG1	0.000	
35	 C61	-8.215	2.261	-25.116	C.3	1	LIG1	0.000	
36	 C62	-8.444	-3.095	-24.418	C.3	1	LIG1	0.000	
37	 C63	-7.190	-2.403	-22.174	C.3	1	LIG1	0.000	
38	 C64	-8.302	-0.154	-24.491	C.3	1	LIG1	0.000	
39	 C65	-8.202	-2.368	-23.251	C.3	1	LIG1	0.000	
40	 C66	-8.820	-1.004	-23.272	C.3	1	LIG1	0.000	
@<TRIPOS>BOND
1 5 11 ar
2 7 24 ar
3 2 8 2
4 3 9 2
5 9 35 1
6 4 10 2
7 10 32 1
8 6 11 ar
9 5 12 ar
10 7 13 ar
11 6 14 ar
12 14 15 ar
13 12 15 ar
14 16 17 ar
15 17 22 ar
16 18 21 ar
17 19 20 ar
18 20 26 ar
19 1 21 1
20 16 21 ar
21 8 22 1
22 18 23 ar
23 22 23 ar
24 24 28 ar
25 19 25 ar
26 26 29 ar
27 13 27 ar
28 27 29 ar
29 25 28 ar
30 28 29 ar
31 9 30 1
32 14 31 1
33 27 32 1
34 32 37 1
35 8 33 1
36 33 38 1
37 30 34 1
38 33 35 1
39 31 36 1
40 37 39 1
41 38 40 1
42 36 39 1
43 10 40 1
44 23 40 1
45 39 40 1
@<TRIPOS>SUBSTRUCTURE
1	LIG1	1	GROUP	1 C	LIG
