# created with PyMOL 3.1.3.1
@<TRIPOS>MOLECULE
predicted
40 45 1                 
SMALL
USER_CHARGES
@<TRIPOS>ATOM
1	CL29	13.383	-1.971	22.021	Cl	1	LIG1	0.000	
2	 O26	10.408	3.816	23.287	O.2	1	LIG1	0.000	
3	 O27	5.712	3.395	23.267	O.2	1	LIG1	0.000	
4	 O28	8.609	1.663	20.703	O.2	1	LIG1	0.000	
5	 N30	4.776	-5.575	22.633	N.2	1	LIG1	0.000	
6	 N31	7.063	-5.015	22.684	N.2	1	LIG1	0.000	
7	 N32	5.481	-3.839	24.029	N.2	1	LIG1	0.000	
8	 N33	6.184	0.100	17.354	N.2	1	LIG1	0.000	
9	 C34	9.954	2.672	23.319	C.2	1	LIG1	0.000	
10	 C35	6.753	3.937	23.092	C.2	1	LIG1	0.000	
11	 C36	8.220	0.665	21.280	C.2	1	LIG1	0.000	
12	 C37	6.076	-5.770	22.218	C.2	1	LIG1	0.000	
13	 C38	4.522	-4.628	23.575	C.2	1	LIG1	0.000	
14	 C39	6.771	-4.039	23.599	C.2	1	LIG1	0.000	
15	 C40	6.890	-0.228	18.440	C.2	1	LIG1	0.000	
16	 C41	12.933	0.545	22.676	C.2	1	LIG1	0.000	
17	 C42	12.156	1.629	22.952	C.2	1	LIG1	0.000	
18	 C43	10.969	-0.819	22.335	C.2	1	LIG1	0.000	
19	 C44	2.829	2.167	20.123	C.2	1	LIG1	0.000	
20	 C45	3.525	1.835	21.270	C.2	1	LIG1	0.000	
21	 C46	12.358	-0.680	22.351	C.2	1	LIG1	0.000	
22	 C47	10.789	1.517	22.972	C.2	1	LIG1	0.000	
23	 C48	10.188	0.277	22.703	C.2	1	LIG1	0.000	
24	 C49	5.024	0.737	17.497	C.2	1	LIG1	0.000	
25	 C50	3.330	1.802	18.878	C.2	1	LIG1	0.000	
26	 C51	4.701	1.155	21.168	C.2	1	LIG1	0.000	
27	 C52	6.458	0.116	19.730	C.2	1	LIG1	0.000	
28	 C53	4.514	1.123	18.759	C.2	1	LIG1	0.000	
29	 C54	5.221	0.807	19.915	C.2	1	LIG1	0.000	
30	 N55	6.953	4.779	22.074	N.pl3	1	LIG1	0.000	
31	 N56	7.841	-3.258	24.063	N.pl3	1	LIG1	0.000	
32	 N57	7.240	-0.158	20.830	N.pl3	1	LIG1	0.000	
33	 N58	8.625	2.476	23.598	N.pl3	1	LIG1	0.000	
34	 C59	5.911	5.179	21.211	C.3	1	LIG1	0.000	
35	 C60	7.876	3.627	23.989	C.3	1	LIG1	0.000	
36	 C61	7.866	-1.799	24.011	C.3	1	LIG1	0.000	
37	 C62	7.088	-1.302	21.638	C.3	1	LIG1	0.000	
38	 C63	8.065	1.124	23.729	C.3	1	LIG1	0.000	
39	 C64	8.159	-1.212	22.699	C.3	1	LIG1	0.000	
40	 C65	8.683	0.182	22.631	C.3	1	LIG1	0.000	
@<TRIPOS>BOND
1 5 13 ar
2 6 12 ar
3 8 24 ar
4 2 9 2
5 3 10 2
6 10 35 1
7 4 11 2
8 11 32 1
9 5 12 ar
10 7 13 ar
11 6 14 ar
12 7 14 ar
13 8 15 ar
14 16 17 ar
15 17 22 ar
16 18 21 ar
17 19 20 ar
18 20 26 ar
19 1 21 1
20 16 21 ar
21 9 22 1
22 18 23 ar
23 22 23 ar
24 24 28 ar
25 19 25 ar
26 26 29 ar
27 15 27 ar
28 27 29 ar
29 25 28 ar
30 28 29 ar
31 10 30 1
32 14 31 1
33 27 32 1
34 32 37 1
35 9 33 1
36 33 38 1
37 30 34 1
38 33 35 1
39 31 36 1
40 37 39 1
41 38 40 1
42 36 39 1
43 11 40 1
44 23 40 1
45 39 40 1
@<TRIPOS>SUBSTRUCTURE
1	LIG1	1	GROUP	1 C	LIG
