# created with PyMOL 3.1.3.1
@<TRIPOS>MOLECULE
predicted
25 27 1                 
SMALL
USER_CHARGES
@<TRIPOS>ATOM
1	 O22	8.257	1.222	20.620	O.2	1	LIG1	0.000	
2	 N26	5.959	0.134	17.223	N.2	1	LIG1	0.000	
3	 C27	8.159	0.121	21.102	C.2	1	LIG1	0.000	
4	 C28	6.656	-0.414	18.215	C.2	1	LIG1	0.000	
5	 C29	2.813	1.911	20.312	C.2	1	LIG1	0.000	
6	 C30	3.512	1.384	21.347	C.2	1	LIG1	0.000	
7	 C31	4.861	0.803	17.447	C.2	1	LIG1	0.000	
8	 C32	3.242	1.736	19.016	C.2	1	LIG1	0.000	
9	 C33	4.663	0.675	21.140	C.2	1	LIG1	0.000	
10	 C34	6.290	-0.263	19.525	C.2	1	LIG1	0.000	
11	 C35	4.395	1.016	18.756	C.2	1	LIG1	0.000	
12	 C36	5.121	0.469	19.838	C.2	1	LIG1	0.000	
13	 N37	8.901	-0.216	22.171	N.pl3	1	LIG1	0.000	
14	 C38	7.150	-0.854	20.567	C.3	1	LIG1	0.000	
15	 C39	7.906	-3.323	23.884	C.3	1	LIG1	0.000	
16	 C40	9.582	0.806	22.895	C.3	1	LIG1	0.000	
17	 C41	8.441	-1.934	23.846	C.3	1	LIG1	0.000	
18	 C42	12.867	-1.123	23.091	C.3	1	LIG1	0.000	
19	 C43	11.044	0.579	22.756	C.3	1	LIG1	0.000	
20	 C44	10.568	-1.877	22.517	C.3	1	LIG1	0.000	
21	 C45	9.101	-1.599	22.559	C.3	1	LIG1	0.000	
22	 C46	11.425	-0.847	23.155	C.3	1	LIG1	0.000	
23	 F23	13.445	-0.522	24.133	 F	1	LIG1	0.000	
24	 F24	13.388	-0.667	21.946	 F	1	LIG1	0.000	
25	 F25	13.146	-2.403	23.182	 F	1	LIG1	0.000	
@<TRIPOS>BOND
1 2 7 ar
2 1 3 2
3 3 14 1
4 2 4 ar
5 5 6 ar
6 6 9 ar
7 7 11 ar
8 5 8 ar
9 9 12 ar
10 4 10 ar
11 10 12 ar
12 8 11 ar
13 11 12 ar
14 3 13 1
15 10 14 1
16 15 17 1
17 13 16 1
18 17 21 1
19 18 23 1
20 18 24 1
21 18 25 1
22 16 19 1
23 20 22 1
24 13 21 1
25 20 21 1
26 18 22 1
27 19 22 1
@<TRIPOS>SUBSTRUCTURE
1	LIG1	1	GROUP	1 C	LIG
