# created with PyMOL 3.1.3.1
@<TRIPOS>MOLECULE
predicted
35 40 1                 
SMALL
USER_CHARGES
@<TRIPOS>ATOM
1	 O24	10.620	3.301	23.982	O.2	1	LIG1	0.000	
2	 O25	8.816	1.371	21.085	O.2	1	LIG1	0.000	
3	 N27	6.351	0.151	17.644	N.2	1	LIG1	0.000	
4	 N28	6.515	4.551	21.654	N.2	1	LIG1	0.000	
5	 N29	5.838	3.855	23.622	N.2	1	LIG1	0.000	
6	 C30	10.175	2.149	23.849	C.2	1	LIG1	0.000	
7	 C31	8.421	0.331	21.578	C.2	1	LIG1	0.000	
8	 C32	7.573	4.039	22.346	C.2	1	LIG1	0.000	
9	 C33	7.057	-0.236	18.690	C.2	1	LIG1	0.000	
10	 C34	7.115	3.598	23.550	C.2	1	LIG1	0.000	
11	 C35	13.203	0.136	22.942	C.2	1	LIG1	0.000	
12	 C36	12.417	1.185	23.345	C.2	1	LIG1	0.000	
13	 C37	11.258	-1.191	22.442	C.2	1	LIG1	0.000	
14	 C38	2.876	1.785	20.540	C.2	1	LIG1	0.000	
15	 C39	3.589	1.367	21.661	C.2	1	LIG1	0.000	
16	 C40	12.647	-1.040	22.489	C.2	1	LIG1	0.000	
17	 C41	11.038	1.050	23.348	C.2	1	LIG1	0.000	
18	 C42	10.443	-0.169	22.938	C.2	1	LIG1	0.000	
19	 C43	5.159	0.734	17.812	C.2	1	LIG1	0.000	
20	 C44	3.398	1.576	19.268	C.2	1	LIG1	0.000	
21	 C45	4.806	0.771	21.512	C.2	1	LIG1	0.000	
22	 C46	6.612	-0.040	20.004	C.2	1	LIG1	0.000	
23	 C47	4.621	0.970	19.095	C.2	1	LIG1	0.000	
24	 C48	5.348	0.570	20.227	C.2	1	LIG1	0.000	
25	 N49	7.398	-0.411	21.085	N.pl3	1	LIG1	0.000	
26	 N50	8.818	1.901	24.099	N.pl3	1	LIG1	0.000	
27	 N51	5.474	4.429	22.431	N.2	1	LIG1	0.000	
28	 C52	7.976	2.933	24.645	C.3	1	LIG1	0.000	
29	 C53	4.182	4.890	22.107	C.3	1	LIG1	0.000	
30	 C54	8.267	-2.452	24.019	C.3	1	LIG1	0.000	
31	 C55	7.259	-1.645	21.803	C.3	1	LIG1	0.000	
32	 C56	8.287	0.528	24.054	C.3	1	LIG1	0.000	
33	 C57	8.404	-1.668	22.784	C.3	1	LIG1	0.000	
34	 C58	8.934	-0.262	22.881	C.3	1	LIG1	0.000	
35	 F26	13.461	-2.021	22.106	 F	1	LIG1	0.000	
@<TRIPOS>BOND
1 3 19 ar
2 4 27 ar
3 1 6 2
4 6 17 1
5 2 7 2
6 7 34 1
7 4 8 ar
8 3 9 ar
9 5 10 ar
10 8 10 ar
11 11 16 ar
12 11 12 ar
13 13 18 ar
14 14 15 ar
15 15 21 ar
16 13 16 ar
17 16 35 1
18 12 17 ar
19 17 18 ar
20 19 23 ar
21 14 20 ar
22 21 24 ar
23 9 22 ar
24 22 24 ar
25 20 23 ar
26 23 24 ar
27 7 25 1
28 22 25 1
29 6 26 1
30 26 28 1
31 5 27 ar
32 27 29 1
33 10 28 1
34 30 33 1
35 25 31 1
36 26 32 1
37 31 33 1
38 33 34 1
39 18 34 1
40 32 34 1
@<TRIPOS>SUBSTRUCTURE
1	LIG1	1	GROUP	1 C	LIG
