# created with PyMOL 3.1.3.1
@<TRIPOS>MOLECULE
predicted
38 42 1                 
SMALL
USER_CHARGES
@<TRIPOS>ATOM
1	CL32	13.304	-2.045	22.174	Cl	1	LIG1	0.000	
2	 O27	10.287	3.751	23.405	O.2	1	LIG1	0.000	
3	 O28	5.500	3.390	23.338	O.2	1	LIG1	0.000	
4	 O29	8.485	1.667	20.770	O.2	1	LIG1	0.000	
5	 O30	6.240	-3.267	25.260	O.2	1	LIG1	0.000	
6	 O31	6.898	-3.952	23.044	O.2	1	LIG1	0.000	
7	 N33	6.172	0.158	17.293	N.2	1	LIG1	0.000	
8	 C34	9.834	2.601	23.406	C.2	1	LIG1	0.000	
9	 C35	6.578	3.806	23.074	C.2	1	LIG1	0.000	
10	 C36	8.106	0.631	21.298	C.2	1	LIG1	0.000	
11	 C37	6.847	-0.178	18.388	C.2	1	LIG1	0.000	
12	 C38	12.806	0.472	22.838	C.2	1	LIG1	0.000	
13	 C39	12.025	1.543	23.104	C.2	1	LIG1	0.000	
14	 C40	10.852	-0.869	22.408	C.2	1	LIG1	0.000	
15	 C41	2.694	2.035	20.003	C.2	1	LIG1	0.000	
16	 C42	3.366	1.676	21.159	C.2	1	LIG1	0.000	
17	 C43	12.234	-0.726	22.478	C.2	1	LIG1	0.000	
18	 C44	10.658	1.434	23.068	C.2	1	LIG1	0.000	
19	 C45	10.052	0.206	22.759	C.2	1	LIG1	0.000	
20	 C46	5.001	0.761	17.411	C.2	1	LIG1	0.000	
21	 C47	3.239	1.730	18.762	C.2	1	LIG1	0.000	
22	 C48	4.561	1.036	21.084	C.2	1	LIG1	0.000	
23	 C49	6.390	0.127	19.673	C.2	1	LIG1	0.000	
24	 C50	4.445	1.092	18.656	C.2	1	LIG1	0.000	
25	 C51	5.131	0.756	19.826	C.2	1	LIG1	0.000	
26	 N52	6.805	4.446	21.943	N.pl3	1	LIG1	0.000	
27	 N53	7.150	-0.184	20.791	N.pl3	1	LIG1	0.000	
28	 N54	8.482	2.406	23.645	N.pl3	1	LIG1	0.000	
29	 N55	7.575	-1.640	23.928	N.3	1	LIG1	0.000	
30	 C56	5.739	4.773	21.040	C.3	1	LIG1	0.000	
31	 C57	7.698	3.553	24.001	C.3	1	LIG1	0.000	
32	 C58	8.879	-4.653	25.853	C.3	1	LIG1	0.000	
33	 C59	7.039	-1.376	21.530	C.3	1	LIG1	0.000	
34	 C60	7.941	1.067	23.749	C.3	1	LIG1	0.000	
35	 C61	8.813	-3.868	24.745	C.3	1	LIG1	0.000	
36	 C62	8.036	-1.251	22.688	C.3	1	LIG1	0.000	
37	 C63	8.563	0.125	22.638	C.3	1	LIG1	0.000	
38	 S64	7.284	-3.236	24.239	S.O2	1	LIG1	0.000	
@<TRIPOS>BOND
1 7 20 ar
2 2 8 2
3 8 18 1
4 3 9 2
5 9 26 1
6 4 10 2
7 10 37 1
8 7 11 ar
9 12 17 ar
10 12 13 ar
11 14 19 ar
12 15 16 ar
13 16 22 ar
14 1 17 1
15 14 17 ar
16 13 18 ar
17 18 19 ar
18 20 24 ar
19 15 21 ar
20 22 25 ar
21 11 23 ar
22 23 25 ar
23 21 24 ar
24 24 25 ar
25 26 30 1
26 10 27 1
27 23 27 1
28 8 28 1
29 28 31 1
30 29 36 1
31 9 31 1
32 32 35 1
33 27 33 1
34 28 34 1
35 35 38 1
36 33 36 1
37 36 37 1
38 19 37 1
39 34 37 1
40 5 38 2
41 6 38 2
42 29 38 1
@<TRIPOS>SUBSTRUCTURE
1	LIG1	1	GROUP	1 C	LIG
