# created with PyMOL 3.1.3.1
@<TRIPOS>MOLECULE
predicted
29 31 1                 
SMALL
USER_CHARGES
@<TRIPOS>ATOM
1	CL24	13.791	-2.590	22.540	Cl	1	LIG1	0.000	
2	 O22	8.806	0.138	21.142	O.2	1	LIG1	0.000	
3	 O23	6.809	-4.606	25.678	O.2	1	LIG1	0.000	
4	 N25	6.266	-0.431	17.798	N.2	1	LIG1	0.000	
5	 C26	8.302	-0.858	21.608	C.2	1	LIG1	0.000	
6	 C27	7.146	-4.177	24.652	C.2	1	LIG1	0.000	
7	 C28	7.287	-1.718	25.179	C.3	1	LIG1	0.000	
8	 C29	7.924	-2.834	24.504	C.3	1	LIG1	0.000	
9	 C30	6.864	-0.967	18.835	C.2	1	LIG1	0.000	
10	 C31	11.664	0.266	24.285	C.2	1	LIG1	0.000	
11	 C32	12.729	-0.502	23.853	C.2	1	LIG1	0.000	
12	 C33	10.392	-0.078	23.905	C.2	1	LIG1	0.000	
13	 C34	11.253	-1.986	22.690	C.2	1	LIG1	0.000	
14	 C35	3.008	1.445	20.753	C.2	1	LIG1	0.000	
15	 C36	3.639	0.883	21.829	C.2	1	LIG1	0.000	
16	 C37	12.502	-1.626	23.060	C.2	1	LIG1	0.000	
17	 C38	10.215	-1.199	23.071	C.2	1	LIG1	0.000	
18	 C39	5.164	0.278	17.973	C.2	1	LIG1	0.000	
19	 C40	3.504	1.273	19.477	C.2	1	LIG1	0.000	
20	 C41	4.760	0.147	21.665	C.2	1	LIG1	0.000	
21	 C42	6.447	-0.794	20.124	C.2	1	LIG1	0.000	
22	 C43	4.638	0.506	19.259	C.2	1	LIG1	0.000	
23	 C44	5.291	-0.051	20.366	C.2	1	LIG1	0.000	
24	 N45	7.153	-1.381	21.189	N.pl3	1	LIG1	0.000	
25	 N46	8.952	-1.546	22.626	N.pl3	1	LIG1	0.000	
26	 N47	6.893	-4.821	23.473	N.pl3	1	LIG1	0.000	
27	 C48	8.412	-2.782	23.188	C.3	1	LIG1	0.000	
28	 C49	6.134	-6.709	22.154	C.3	1	LIG1	0.000	
29	 C50	6.241	-6.167	23.507	C.3	1	LIG1	0.000	
@<TRIPOS>BOND
1 4 18 ar
2 2 5 2
3 5 24 1
4 3 6 2
5 6 26 1
6 7 8 1
7 6 8 1
8 8 27 1
9 4 9 ar
10 10 11 ar
11 11 16 ar
12 10 12 ar
13 14 15 ar
14 15 20 ar
15 1 16 1
16 13 16 ar
17 12 17 ar
18 13 17 ar
19 18 22 ar
20 14 19 ar
21 20 23 ar
22 9 21 ar
23 21 23 ar
24 19 22 ar
25 22 23 ar
26 21 24 1
27 5 25 1
28 17 25 1
29 26 29 1
30 25 27 1
31 28 29 1
@<TRIPOS>SUBSTRUCTURE
1	LIG1	1	GROUP	1 C	LIG
