# created with PyMOL 3.1.3.1
@<TRIPOS>MOLECULE
predicted
34 39 1                 
SMALL
USER_CHARGES
@<TRIPOS>ATOM
1	 O22	-10.868	2.100	-24.332	O.2	1	LIG1	0.000	
2	 O23	-8.729	0.350	-21.512	O.2	1	LIG1	0.000	
3	 N25	-7.518	2.617	-22.772	N.2	1	LIG1	0.000	
4	 N26	-6.221	-0.709	-18.089	N.2	1	LIG1	0.000	
5	 O27	-5.626	3.519	-23.234	O.2	1	LIG1	0.000	
6	 C28	-10.348	0.979	-24.192	C.2	1	LIG1	0.000	
7	 C29	-8.336	-0.696	-21.996	C.2	1	LIG1	0.000	
8	 C30	-6.443	3.214	-22.277	C.2	1	LIG1	0.000	
9	 C31	-6.922	-1.155	-19.110	C.2	1	LIG1	0.000	
10	 C32	-7.412	2.550	-24.075	C.2	1	LIG1	0.000	
11	 C33	-6.195	3.165	-24.404	C.2	1	LIG1	0.000	
12	 C34	-13.180	-1.099	-22.974	C.2	1	LIG1	0.000	
13	 C35	-12.477	-0.054	-23.496	C.2	1	LIG1	0.000	
14	 C36	-11.134	-2.342	-22.593	C.2	1	LIG1	0.000	
15	 C37	-2.871	1.000	-21.121	C.2	1	LIG1	0.000	
16	 C38	-3.562	0.513	-22.199	C.2	1	LIG1	0.000	
17	 C39	-12.523	-2.246	-22.521	C.2	1	LIG1	0.000	
18	 C40	-11.093	-0.136	-23.601	C.2	1	LIG1	0.000	
19	 C41	-10.404	-1.309	-23.203	C.2	1	LIG1	0.000	
20	 C42	-5.053	-0.081	-18.289	C.2	1	LIG1	0.000	
21	 C43	-3.359	0.809	-19.825	C.2	1	LIG1	0.000	
22	 C44	-4.740	-0.147	-22.003	C.2	1	LIG1	0.000	
23	 C45	-6.498	-1.002	-20.438	C.2	1	LIG1	0.000	
24	 C46	-4.555	0.144	-19.601	C.2	1	LIG1	0.000	
25	 C47	-5.270	-0.333	-20.711	C.2	1	LIG1	0.000	
26	 N48	-7.298	-1.409	-21.493	N.pl3	1	LIG1	0.000	
27	 N49	-9.001	0.801	-24.511	N.pl3	1	LIG1	0.000	
28	 C50	-8.249	1.872	-25.123	C.3	1	LIG1	0.000	
29	 C51	-8.288	-3.526	-24.369	C.3	1	LIG1	0.000	
30	 C52	-7.158	-2.666	-22.189	C.3	1	LIG1	0.000	
31	 C53	-8.388	-0.535	-24.474	C.3	1	LIG1	0.000	
32	 C54	-8.304	-2.714	-23.163	C.3	1	LIG1	0.000	
33	 C55	-8.904	-1.338	-23.250	C.3	1	LIG1	0.000	
34	 F24	-13.240	-3.249	-22.017	 F	1	LIG1	0.000	
@<TRIPOS>BOND
1 4 20 ar
2 5 8 ar
3 1 6 2
4 6 18 1
5 2 7 2
6 7 33 1
7 3 8 ar
8 4 9 ar
9 3 10 ar
10 10 11 ar
11 5 11 ar
12 12 17 ar
13 12 13 ar
14 14 19 ar
15 15 16 ar
16 16 22 ar
17 14 17 ar
18 17 34 1
19 13 18 ar
20 18 19 ar
21 20 24 ar
22 15 21 ar
23 22 25 ar
24 9 23 ar
25 23 25 ar
26 21 24 ar
27 24 25 ar
28 7 26 1
29 23 26 1
30 6 27 1
31 27 28 1
32 10 28 1
33 29 32 1
34 26 30 1
35 27 31 1
36 30 32 1
37 32 33 1
38 19 33 1
39 31 33 1
@<TRIPOS>SUBSTRUCTURE
1	LIG1	1	GROUP	1 C	LIG
