# created with PyMOL 3.1.3.1
@<TRIPOS>MOLECULE
predicted
20 22 1                 
SMALL
USER_CHARGES
@<TRIPOS>ATOM
1	 O19	8.730	1.448	20.531	O.2	1	LIG1	0.000	
2	 N20	6.249	0.134	17.299	N.2	1	LIG1	0.000	
3	 C21	8.688	0.399	21.112	C.2	1	LIG1	0.000	
4	 C22	11.716	1.201	22.400	C.3	1	LIG1	0.000	
5	 C23	12.602	0.139	22.975	C.3	1	LIG1	0.000	
6	 C24	7.023	-0.327	18.269	C.2	1	LIG1	0.000	
7	 C25	3.119	1.790	20.506	C.2	1	LIG1	0.000	
8	 C26	3.908	1.341	21.522	C.2	1	LIG1	0.000	
9	 C27	5.118	0.729	17.562	C.2	1	LIG1	0.000	
10	 C28	3.497	1.606	19.201	C.2	1	LIG1	0.000	
11	 C29	5.107	0.710	21.268	C.2	1	LIG1	0.000	
12	 C30	6.746	-0.161	19.607	C.2	1	LIG1	0.000	
13	 C31	4.687	0.969	18.886	C.2	1	LIG1	0.000	
14	 C32	5.504	0.495	19.951	C.2	1	LIG1	0.000	
15	 N33	9.490	0.196	22.228	N.pl3	1	LIG1	0.000	
16	 C34	7.708	-0.659	20.648	C.3	1	LIG1	0.000	
17	 C35	10.261	1.256	22.798	C.3	1	LIG1	0.000	
18	 C36	12.257	-1.256	22.886	C.3	1	LIG1	0.000	
19	 C37	9.620	-1.062	22.930	C.3	1	LIG1	0.000	
20	 C38	10.901	-1.808	22.647	C.3	1	LIG1	0.000	
@<TRIPOS>BOND
1 1 3 2
2 2 9 ar
3 3 15 1
4 3 16 1
5 4 5 1
6 5 18 1
7 2 6 ar
8 7 8 ar
9 8 11 ar
10 9 13 ar
11 7 10 ar
12 11 14 ar
13 6 12 ar
14 12 14 ar
15 10 13 ar
16 13 14 ar
17 15 17 1
18 15 19 1
19 12 16 1
20 4 17 1
21 18 20 1
22 19 20 1
@<TRIPOS>SUBSTRUCTURE
1	LIG1	1	GROUP	1 C	LIG
