# created with PyMOL 3.1.3.1
@<TRIPOS>MOLECULE
predicted
40 45 1                 
SMALL
USER_CHARGES
@<TRIPOS>ATOM
1	CL31	13.423	-2.015	21.663	Cl	1	LIG1	0.000	
2	 O28	10.248	3.453	23.755	O.2	1	LIG1	0.000	
3	 O29	5.548	3.400	23.401	O.2	1	LIG1	0.000	
4	 O30	8.473	1.525	20.825	O.2	1	LIG1	0.000	
5	 N32	5.832	-4.482	26.646	N.2	1	LIG1	0.000	
6	 N33	6.124	0.045	17.324	N.2	1	LIG1	0.000	
7	 S34	5.773	-5.280	24.401	S.2	1	LIG1	0.000	
8	 C35	9.821	2.299	23.625	C.2	1	LIG1	0.000	
9	 C36	6.697	3.640	23.333	C.2	1	LIG1	0.000	
10	 C37	8.138	0.452	21.295	C.2	1	LIG1	0.000	
11	 C38	5.210	-5.343	25.899	C.2	1	LIG1	0.000	
12	 C39	6.745	-3.753	25.969	C.2	1	LIG1	0.000	
13	 C40	6.836	-0.320	18.387	C.2	1	LIG1	0.000	
14	 C41	6.834	-4.123	24.658	C.2	1	LIG1	0.000	
15	 C42	12.874	0.384	22.684	C.2	1	LIG1	0.000	
16	 C43	12.060	1.391	23.120	C.2	1	LIG1	0.000	
17	 C44	10.948	-0.969	22.160	C.2	1	LIG1	0.000	
18	 C45	2.738	1.865	20.190	C.2	1	LIG1	0.000	
19	 C46	3.452	1.504	21.318	C.2	1	LIG1	0.000	
20	 C47	12.327	-0.789	22.200	C.2	1	LIG1	0.000	
21	 C48	10.693	1.229	23.130	C.2	1	LIG1	0.000	
22	 C49	10.130	0.018	22.680	C.2	1	LIG1	0.000	
23	 C50	4.959	0.634	17.489	C.2	1	LIG1	0.000	
24	 C51	3.235	1.579	18.917	C.2	1	LIG1	0.000	
25	 C52	4.641	0.871	21.179	C.2	1	LIG1	0.000	
26	 C53	6.422	-0.045	19.685	C.2	1	LIG1	0.000	
27	 C54	4.438	0.941	18.756	C.2	1	LIG1	0.000	
28	 C55	5.164	0.589	19.897	C.2	1	LIG1	0.000	
29	 N56	7.182	4.351	22.303	N.pl3	1	LIG1	0.000	
30	 N57	7.662	-3.574	23.684	N.pl3	1	LIG1	0.000	
31	 N58	7.198	-0.373	20.766	N.pl3	1	LIG1	0.000	
32	 N59	8.476	2.037	23.834	N.pl3	1	LIG1	0.000	
33	 C60	4.109	-6.218	26.389	C.3	1	LIG1	0.000	
34	 C61	6.325	4.970	21.334	C.3	1	LIG1	0.000	
35	 C62	7.648	3.084	24.345	C.3	1	LIG1	0.000	
36	 C63	8.113	-2.233	23.785	C.3	1	LIG1	0.000	
37	 C64	7.114	-1.588	21.473	C.3	1	LIG1	0.000	
38	 C65	7.971	0.682	23.772	C.3	1	LIG1	0.000	
39	 C66	8.172	-1.530	22.523	C.3	1	LIG1	0.000	
40	 C67	8.635	-0.124	22.601	C.3	1	LIG1	0.000	
@<TRIPOS>BOND
1 5 11 ar
2 6 23 ar
3 2 8 2
4 3 9 2
5 9 35 1
6 4 10 2
7 10 31 1
8 7 11 ar
9 11 33 1
10 5 12 ar
11 6 13 ar
12 7 14 ar
13 12 14 ar
14 15 16 ar
15 16 21 ar
16 17 20 ar
17 18 19 ar
18 19 25 ar
19 1 20 1
20 15 20 ar
21 8 21 1
22 17 22 ar
23 21 22 ar
24 23 27 ar
25 18 24 ar
26 25 28 ar
27 13 26 ar
28 26 28 ar
29 24 27 ar
30 27 28 ar
31 9 29 1
32 14 30 1
33 26 31 1
34 31 37 1
35 8 32 1
36 32 38 1
37 29 34 1
38 32 35 1
39 30 36 1
40 37 39 1
41 38 40 1
42 36 39 1
43 10 40 1
44 22 40 1
45 39 40 1
@<TRIPOS>SUBSTRUCTURE
1	LIG1	1	GROUP	1 C	LIG
