# created with PyMOL 3.1.3.1
@<TRIPOS>MOLECULE
predicted
36 41 1                 
SMALL
USER_CHARGES
@<TRIPOS>ATOM
1	CL33	-13.367	-2.902	-21.792	Cl	1	LIG1	0.000	
2	 O30	-5.487	1.830	-24.961	O.2	1	LIG1	0.000	
3	 O31	-8.599	0.618	-21.654	O.2	1	LIG1	0.000	
4	 N34	-6.348	-0.468	-17.977	N.2	1	LIG1	0.000	
5	 C35	-6.581	2.180	-24.672	C.2	1	LIG1	0.000	
6	 C36	-8.220	-0.481	-22.059	C.2	1	LIG1	0.000	
7	 C37	-6.989	-0.935	-19.044	C.2	1	LIG1	0.000	
8	 C38	-12.978	-0.797	-23.378	C.2	1	LIG1	0.000	
9	 C39	-12.220	0.056	-24.109	C.2	1	LIG1	0.000	
10	 C40	-10.976	-1.913	-22.608	C.2	1	LIG1	0.000	
11	 C41	-2.947	1.333	-20.801	C.2	1	LIG1	0.000	
12	 C42	-3.567	0.840	-21.913	C.2	1	LIG1	0.000	
13	 C43	-12.358	-1.798	-22.629	C.2	1	LIG1	0.000	
14	 C44	-10.840	-0.047	-24.091	C.2	1	LIG1	0.000	
15	 C45	-10.200	-1.090	-23.393	C.2	1	LIG1	0.000	
16	 C46	-5.203	0.183	-18.125	C.2	1	LIG1	0.000	
17	 C47	-3.479	1.116	-19.544	C.2	1	LIG1	0.000	
18	 C48	-4.725	0.166	-21.795	C.2	1	LIG1	0.000	
19	 C49	-6.525	-0.744	-20.348	C.2	1	LIG1	0.000	
20	 C50	-4.654	0.426	-19.392	C.2	1	LIG1	0.000	
21	 C51	-5.308	-0.047	-20.524	C.2	1	LIG1	0.000	
22	 N52	-7.250	-1.203	-21.459	N.pl3	1	LIG1	0.000	
23	 N53	-6.809	2.831	-23.534	N.pl3	1	LIG1	0.000	
24	 C54	-7.102	-2.502	-22.078	C.3	1	LIG1	0.000	
25	 C55	-8.168	-2.527	-23.212	C.3	1	LIG1	0.000	
26	 C56	-5.767	3.424	-22.725	C.3	1	LIG1	0.000	
27	 C57	-7.369	5.362	-22.478	C.3	1	LIG1	0.000	
28	 C58	-5.388	5.948	-22.429	C.3	1	LIG1	0.000	
29	 C59	-7.770	1.737	-25.447	C.3	1	LIG1	0.000	
30	 C60	-10.046	0.926	-24.964	C.3	1	LIG1	0.000	
31	 C61	-8.092	-0.459	-24.561	C.3	1	LIG1	0.000	
32	 C62	-6.741	6.744	-22.304	C.3	1	LIG1	0.000	
33	 C63	-8.728	-1.153	-23.323	C.3	1	LIG1	0.000	
34	 C64	-6.054	4.788	-22.560	C.3	1	LIG1	0.000	
35	 N65	-8.567	0.918	-24.621	N.3	1	LIG1	0.000	
36	 F32	-7.038	7.468	-23.405	 F	1	LIG1	0.000	
@<TRIPOS>BOND
1 2 5 2
2 4 16 ar
3 5 23 1
4 5 29 1
5 3 6 2
6 4 7 ar
7 8 13 ar
8 8 9 ar
9 10 15 ar
10 11 12 ar
11 12 18 ar
12 1 13 1
13 10 13 ar
14 9 14 ar
15 14 15 ar
16 15 33 1
17 16 20 ar
18 11 17 ar
19 18 21 ar
20 7 19 ar
21 19 21 ar
22 17 20 ar
23 20 21 ar
24 6 22 1
25 19 22 1
26 23 26 1
27 22 24 1
28 24 25 1
29 26 34 1
30 28 32 1
31 29 35 1
32 14 30 1
33 27 32 1
34 32 36 1
35 6 33 1
36 25 33 1
37 31 33 1
38 27 34 1
39 28 34 1
40 30 35 1
41 31 35 1
@<TRIPOS>SUBSTRUCTURE
1	LIG1	1	GROUP	1 C	LIG
