# created with PyMOL 3.1.3.1
@<TRIPOS>MOLECULE
predicted
35 40 1                 
SMALL
USER_CHARGES
@<TRIPOS>ATOM
1	 O25	-10.660	2.425	-24.324	O.2	1	LIG1	0.000	
2	 O26	-8.541	0.709	-21.346	O.2	1	LIG1	0.000	
3	 N28	-6.103	-0.444	-17.886	N.2	1	LIG1	0.000	
4	 N29	-5.786	2.521	-23.931	N.2	1	LIG1	0.000	
5	 C30	-10.122	1.322	-24.111	C.2	1	LIG1	0.000	
6	 C31	-8.127	-0.333	-21.821	C.2	1	LIG1	0.000	
7	 C32	-6.782	-0.866	-18.927	C.2	1	LIG1	0.000	
8	 C33	-5.264	3.225	-22.873	C.2	1	LIG1	0.000	
9	 C34	-12.950	-0.726	-22.825	C.2	1	LIG1	0.000	
10	 C35	-12.250	0.303	-23.382	C.2	1	LIG1	0.000	
11	 C36	-10.892	-1.950	-22.406	C.2	1	LIG1	0.000	
12	 C37	-2.657	1.259	-20.786	C.2	1	LIG1	0.000	
13	 C38	-3.323	0.796	-21.892	C.2	1	LIG1	0.000	
14	 C39	-12.287	-1.854	-22.337	C.2	1	LIG1	0.000	
15	 C40	-10.864	0.228	-23.485	C.2	1	LIG1	0.000	
16	 C41	-10.184	-0.936	-23.046	C.2	1	LIG1	0.000	
17	 C42	-4.926	0.185	-18.053	C.2	1	LIG1	0.000	
18	 C43	-3.182	1.061	-19.524	C.2	1	LIG1	0.000	
19	 C44	-4.520	0.158	-21.743	C.2	1	LIG1	0.000	
20	 C45	-6.331	-0.671	-20.239	C.2	1	LIG1	0.000	
21	 C46	-7.066	2.827	-24.012	C.2	1	LIG1	0.000	
22	 C47	-6.261	3.991	-22.301	C.2	1	LIG1	0.000	
23	 C48	-4.388	0.421	-19.336	C.2	1	LIG1	0.000	
24	 C49	-5.085	-0.025	-20.468	C.2	1	LIG1	0.000	
25	 N50	-7.110	-1.058	-21.316	N.pl3	1	LIG1	0.000	
26	 N51	-8.780	1.155	-24.401	N.pl3	1	LIG1	0.000	
27	 N52	-7.380	3.719	-23.070	N.2	1	LIG1	0.000	
28	 C53	-8.035	2.198	-25.059	C.3	1	LIG1	0.000	
29	 C54	-8.655	4.350	-22.885	C.3	1	LIG1	0.000	
30	 C55	-8.050	-3.150	-24.209	C.3	1	LIG1	0.000	
31	 C56	-6.954	-2.292	-22.018	C.3	1	LIG1	0.000	
32	 C57	-8.161	-0.174	-24.310	C.3	1	LIG1	0.000	
33	 C58	-8.086	-2.348	-22.990	C.3	1	LIG1	0.000	
34	 C59	-8.685	-0.970	-23.085	C.3	1	LIG1	0.000	
35	 F27	-13.001	-2.839	-21.805	 F	1	LIG1	0.000	
@<TRIPOS>BOND
1 3 17 ar
2 4 8 ar
3 1 5 2
4 5 15 1
5 2 6 2
6 6 34 1
7 3 7 ar
8 8 22 ar
9 9 14 ar
10 9 10 ar
11 11 16 ar
12 12 13 ar
13 13 19 ar
14 11 14 ar
15 14 35 1
16 10 15 ar
17 15 16 ar
18 17 23 ar
19 12 18 ar
20 19 24 ar
21 7 20 ar
22 20 24 ar
23 4 21 ar
24 21 27 ar
25 22 27 ar
26 18 23 ar
27 23 24 ar
28 6 25 1
29 20 25 1
30 5 26 1
31 26 28 1
32 27 29 1
33 21 28 1
34 30 33 1
35 25 31 1
36 26 32 1
37 31 33 1
38 33 34 1
39 16 34 1
40 32 34 1
@<TRIPOS>SUBSTRUCTURE
1	LIG1	1	GROUP	1 C	LIG
