# created with PyMOL 3.1.3.1
@<TRIPOS>MOLECULE
predicted
37 41 1                 
SMALL
USER_CHARGES
@<TRIPOS>ATOM
1	CL32	13.914	-0.693	25.265	Cl	1	LIG1	0.000	
2	 O30	8.475	1.110	20.829	O.2	1	LIG1	0.000	
3	 O31	5.626	-5.579	19.809	O.2	1	LIG1	0.000	
4	 N33	6.118	0.221	17.408	N.2	1	LIG1	0.000	
5	 C34	8.015	0.126	21.374	C.2	1	LIG1	0.000	
6	 C35	6.428	-4.922	20.390	C.2	1	LIG1	0.000	
7	 C36	6.640	-0.191	18.554	C.2	1	LIG1	0.000	
8	 C37	12.575	-1.101	21.549	C.2	1	LIG1	0.000	
9	 C38	13.409	-1.086	22.622	C.2	1	LIG1	0.000	
10	 C39	8.948	-2.349	23.963	C.2	1	LIG1	0.000	
11	 C40	11.276	-0.712	21.684	C.2	1	LIG1	0.000	
12	 C41	11.651	-0.192	23.947	C.2	1	LIG1	0.000	
13	 C42	7.544	-2.724	22.125	C.2	1	LIG1	0.000	
14	 C43	8.780	-3.648	24.398	C.2	1	LIG1	0.000	
15	 C44	2.668	2.436	19.809	C.2	1	LIG1	0.000	
16	 C45	3.192	2.013	21.008	C.2	1	LIG1	0.000	
17	 C46	12.934	-0.653	23.813	C.2	1	LIG1	0.000	
18	 C47	8.333	-1.862	22.846	C.2	1	LIG1	0.000	
19	 C48	10.827	-0.202	22.880	C.2	1	LIG1	0.000	
20	 C49	7.320	-4.023	22.523	C.2	1	LIG1	0.000	
21	 C50	7.964	-4.492	23.717	C.2	1	LIG1	0.000	
22	 C51	5.043	0.928	17.416	C.2	1	LIG1	0.000	
23	 C52	3.268	2.088	18.617	C.2	1	LIG1	0.000	
24	 C53	4.332	1.262	21.060	C.2	1	LIG1	0.000	
25	 C54	6.107	0.128	19.806	C.2	1	LIG1	0.000	
26	 C55	4.405	1.318	18.620	C.2	1	LIG1	0.000	
27	 C56	4.948	0.896	19.846	C.2	1	LIG1	0.000	
28	 N57	8.582	-0.521	22.409	N.pl3	1	LIG1	0.000	
29	 N58	9.489	0.226	23.062	N.pl3	1	LIG1	0.000	
30	 N59	6.502	-4.908	21.768	N.pl3	1	LIG1	0.000	
31	 C60	6.713	-0.396	21.021	C.3	1	LIG1	0.000	
32	 C61	9.059	1.298	23.864	C.3	1	LIG1	0.000	
33	 C62	6.860	-3.481	18.363	C.3	1	LIG1	0.000	
34	 C63	7.418	-4.109	19.629	C.3	1	LIG1	0.000	
35	 C64	7.717	-5.837	24.227	C.3	1	LIG1	0.000	
36	 C65	5.823	-5.919	22.523	C.3	1	LIG1	0.000	
37	 C66	6.965	-6.725	23.294	C.3	1	LIG1	0.000	
@<TRIPOS>BOND
1 4 22 ar
2 2 5 2
3 5 31 1
4 3 6 2
5 6 30 1
6 4 7 ar
7 8 9 ar
8 9 17 ar
9 10 18 ar
10 8 11 ar
11 13 20 ar
12 10 14 ar
13 15 16 ar
14 16 24 ar
15 1 17 1
16 12 17 ar
17 13 18 ar
18 18 28 1
19 11 19 ar
20 12 19 ar
21 14 21 ar
22 20 21 ar
23 22 26 ar
24 15 23 ar
25 24 27 ar
26 7 25 ar
27 25 27 ar
28 23 26 ar
29 26 27 ar
30 5 28 1
31 28 29 1
32 19 29 1
33 29 32 1
34 20 30 1
35 30 36 1
36 25 31 1
37 33 34 1
38 6 34 1
39 21 35 1
40 36 37 1
41 35 37 1
@<TRIPOS>SUBSTRUCTURE
1	LIG1	1	GROUP	1 C	LIG
