# created with PyMOL 3.1.3.1
@<TRIPOS>MOLECULE
predicted
22 25 1                 
SMALL
USER_CHARGES
@<TRIPOS>ATOM
1	 O17	8.560	1.357	20.557	O.2	1	LIG1	0.000	
2	 N18	6.088	0.153	17.333	N.2	1	LIG1	0.000	
3	 S19	12.858	-1.974	23.421	S.2	1	LIG1	0.000	
4	 C20	8.394	0.300	21.163	C.2	1	LIG1	0.000	
5	 C21	6.807	-0.319	18.355	C.2	1	LIG1	0.000	
6	 C22	13.645	-0.567	23.204	C.2	1	LIG1	0.000	
7	 C23	11.334	-1.337	23.175	C.2	1	LIG1	0.000	
8	 C24	12.746	0.441	22.917	C.2	1	LIG1	0.000	
9	 C25	2.967	2.112	20.327	C.2	1	LIG1	0.000	
10	 C26	3.679	1.676	21.391	C.2	1	LIG1	0.000	
11	 C27	11.443	0.008	22.878	C.2	1	LIG1	0.000	
12	 C28	4.987	0.811	17.525	C.2	1	LIG1	0.000	
13	 C29	3.382	1.838	19.048	C.2	1	LIG1	0.000	
14	 C30	4.831	0.966	21.219	C.2	1	LIG1	0.000	
15	 C31	6.431	-0.085	19.645	C.2	1	LIG1	0.000	
16	 C32	4.527	1.120	18.812	C.2	1	LIG1	0.000	
17	 C33	5.272	0.664	19.920	C.2	1	LIG1	0.000	
18	 N34	9.140	-0.013	22.245	N.pl3	1	LIG1	0.000	
19	 C35	7.313	-0.635	20.745	C.3	1	LIG1	0.000	
20	 C36	10.207	0.824	22.614	C.3	1	LIG1	0.000	
21	 C37	10.046	-2.066	23.089	C.3	1	LIG1	0.000	
22	 C38	8.884	-1.180	23.047	C.3	1	LIG1	0.000	
@<TRIPOS>BOND
1 1 4 2
2 2 12 ar
3 3 6 ar
4 4 18 1
5 4 19 1
6 2 5 ar
7 6 8 ar
8 3 7 ar
9 7 11 ar
10 8 11 ar
11 9 10 ar
12 10 14 ar
13 11 20 1
14 12 16 ar
15 9 13 ar
16 14 17 ar
17 5 15 ar
18 15 17 ar
19 13 16 ar
20 16 17 ar
21 18 20 1
22 18 22 1
23 15 19 1
24 7 21 1
25 21 22 1
@<TRIPOS>SUBSTRUCTURE
1	LIG1	1	GROUP	1 C	LIG
