# created with PyMOL 3.1.3.1
@<TRIPOS>MOLECULE
predicted
34 38 1                 
SMALL
USER_CHARGES
@<TRIPOS>ATOM
1	CL29	-13.047	-3.171	-21.952	Cl	1	LIG1	0.000	
2	 O26	-10.839	2.653	-24.099	O.2	1	LIG1	0.000	
3	 O27	-5.962	2.588	-24.423	O.2	1	LIG1	0.000	
4	 O28	-8.590	0.817	-21.349	O.2	1	LIG1	0.000	
5	 N30	-6.141	-0.562	-17.917	N.2	1	LIG1	0.000	
6	 C31	-10.241	1.571	-24.040	C.2	1	LIG1	0.000	
7	 C32	-7.009	3.012	-24.033	C.2	1	LIG1	0.000	
8	 C33	-8.139	-0.186	-21.900	C.2	1	LIG1	0.000	
9	 C34	-6.800	-0.942	-18.986	C.2	1	LIG1	0.000	
10	 C35	-12.927	-0.756	-22.987	C.2	1	LIG1	0.000	
11	 C36	-12.293	0.339	-23.472	C.2	1	LIG1	0.000	
12	 C37	-10.800	-1.830	-22.570	C.2	1	LIG1	0.000	
13	 C38	-2.848	1.649	-20.692	C.2	1	LIG1	0.000	
14	 C39	-3.507	1.252	-21.831	C.2	1	LIG1	0.000	
15	 C40	-12.187	-1.846	-22.516	C.2	1	LIG1	0.000	
16	 C41	-10.905	0.364	-23.538	C.2	1	LIG1	0.000	
17	 C42	-10.143	-0.771	-23.178	C.2	1	LIG1	0.000	
18	 C43	-5.009	0.142	-18.042	C.2	1	LIG1	0.000	
19	 C44	-3.342	1.282	-19.439	C.2	1	LIG1	0.000	
20	 C45	-4.654	0.520	-21.719	C.2	1	LIG1	0.000	
21	 C46	-6.381	-0.592	-20.281	C.2	1	LIG1	0.000	
22	 C47	-4.502	0.540	-19.311	C.2	1	LIG1	0.000	
23	 C48	-5.178	0.153	-20.472	C.2	1	LIG1	0.000	
24	 N49	-7.117	3.669	-22.854	N.pl3	1	LIG1	0.000	
25	 N50	-7.139	-0.941	-21.389	N.pl3	1	LIG1	0.000	
26	 N51	-8.895	1.521	-24.311	N.pl3	1	LIG1	0.000	
27	 C52	-5.964	3.970	-22.056	C.3	1	LIG1	0.000	
28	 C53	-8.270	2.717	-24.811	C.3	1	LIG1	0.000	
29	 C54	-6.592	-2.046	-24.302	C.3	1	LIG1	0.000	
30	 C55	-8.679	-3.168	-23.826	C.3	1	LIG1	0.000	
31	 C56	-6.951	-2.175	-22.108	C.3	1	LIG1	0.000	
32	 C57	-8.205	0.229	-24.389	C.3	1	LIG1	0.000	
33	 C58	-7.844	-2.041	-23.371	C.3	1	LIG1	0.000	
34	 C59	-8.632	-0.728	-23.237	C.3	1	LIG1	0.000	
@<TRIPOS>BOND
1 5 18 ar
2 2 6 2
3 3 7 2
4 7 28 1
5 4 8 2
6 8 25 1
7 5 9 ar
8 10 11 ar
9 11 16 ar
10 12 15 ar
11 13 14 ar
12 14 20 ar
13 1 15 1
14 10 15 ar
15 6 16 1
16 12 17 ar
17 16 17 ar
18 18 22 ar
19 13 19 ar
20 20 23 ar
21 9 21 ar
22 21 23 ar
23 19 22 ar
24 22 23 ar
25 7 24 1
26 21 25 1
27 25 31 1
28 6 26 1
29 26 32 1
30 24 27 1
31 26 28 1
32 31 33 1
33 32 34 1
34 29 33 1
35 30 33 1
36 8 34 1
37 17 34 1
38 33 34 1
@<TRIPOS>SUBSTRUCTURE
1	LIG1	1	GROUP	1 C	LIG
