# created with PyMOL 3.1.3.1
@<TRIPOS>MOLECULE
predicted
22 25 1                 
SMALL
USER_CHARGES
@<TRIPOS>ATOM
1	 O23	-8.071	0.450	-21.332	O.2	1	LIG1	0.000	
2	 N24	-5.825	-0.546	-17.878	N.2	1	LIG1	0.000	
3	 C25	-7.861	-0.619	-21.865	C.2	1	LIG1	0.000	
4	 C26	-6.459	-1.106	-18.910	C.2	1	LIG1	0.000	
5	 C27	-2.709	1.467	-20.846	C.2	1	LIG1	0.000	
6	 C28	-3.347	0.926	-21.912	C.2	1	LIG1	0.000	
7	 C29	-4.767	0.176	-18.064	C.2	1	LIG1	0.000	
8	 C30	-3.162	1.234	-19.563	C.2	1	LIG1	0.000	
9	 C31	-4.449	0.154	-21.745	C.2	1	LIG1	0.000	
10	 C32	-6.051	-0.930	-20.182	C.2	1	LIG1	0.000	
11	 C33	-4.274	0.447	-19.347	C.2	1	LIG1	0.000	
12	 C34	-4.931	-0.117	-20.466	C.2	1	LIG1	0.000	
13	 N35	-8.523	-0.935	-22.997	N.pl3	1	LIG1	0.000	
14	 C36	-6.845	-1.561	-21.317	C.3	1	LIG1	0.000	
15	 C37	-9.251	0.086	-23.718	C.3	1	LIG1	0.000	
16	 C38	-8.604	-2.271	-23.527	C.3	1	LIG1	0.000	
17	 C39	-10.702	-0.234	-23.564	C.3	1	LIG1	0.000	
18	 C40	-10.070	-2.661	-23.375	C.3	1	LIG1	0.000	
19	 C41	-12.959	-2.990	-23.144	C.3	1	LIG1	0.000	
20	 C42	-13.084	-3.003	-24.644	C.3	1	LIG1	0.000	
21	 C43	-10.964	-1.641	-24.056	C.3	1	LIG1	0.000	
22	 C44	-12.478	-1.846	-23.878	C.3	1	LIG1	0.000	
@<TRIPOS>BOND
1 1 3 2
2 2 7 ar
3 3 13 1
4 3 14 1
5 2 4 ar
6 5 6 ar
7 6 9 ar
8 7 11 ar
9 5 8 ar
10 9 12 ar
11 4 10 ar
12 10 12 ar
13 8 11 ar
14 11 12 ar
15 13 15 1
16 13 16 1
17 10 14 1
18 15 17 1
19 17 21 1
20 16 18 1
21 19 20 1
22 18 21 1
23 21 22 1
24 19 22 1
25 20 22 1
@<TRIPOS>SUBSTRUCTURE
1	LIG1	1	GROUP	1 C	LIG
