# created with PyMOL 3.1.3.1
@<TRIPOS>MOLECULE
predicted
22 25 1                 
SMALL
USER_CHARGES
@<TRIPOS>ATOM
1	 O23	-8.187	0.360	-21.390	O.2	1	LIG1	0.000	
2	 N24	-5.996	-0.600	-17.803	N.2	1	LIG1	0.000	
3	 C25	-8.057	-0.784	-21.817	C.2	1	LIG1	0.000	
4	 C26	-6.667	-1.169	-18.810	C.2	1	LIG1	0.000	
5	 C27	-2.821	1.161	-20.858	C.2	1	LIG1	0.000	
6	 C28	-3.488	0.608	-21.901	C.2	1	LIG1	0.000	
7	 C29	-4.911	0.070	-18.025	C.2	1	LIG1	0.000	
8	 C30	-3.275	1.000	-19.565	C.2	1	LIG1	0.000	
9	 C31	-4.625	-0.100	-21.698	C.2	1	LIG1	0.000	
10	 C32	-6.268	-1.059	-20.082	C.2	1	LIG1	0.000	
11	 C33	-4.418	0.269	-19.316	C.2	1	LIG1	0.000	
12	 C34	-5.107	-0.305	-20.408	C.2	1	LIG1	0.000	
13	 N35	-8.765	-1.165	-22.913	N.pl3	1	LIG1	0.000	
14	 C36	-7.096	-1.719	-21.185	C.3	1	LIG1	0.000	
15	 C37	-8.935	-2.549	-23.297	C.3	1	LIG1	0.000	
16	 C38	-9.485	-0.179	-23.716	C.3	1	LIG1	0.000	
17	 C39	-13.428	-2.652	-24.360	C.3	1	LIG1	0.000	
18	 C40	-10.423	-2.873	-22.925	C.3	1	LIG1	0.000	
19	 C41	-10.980	-0.385	-23.376	C.3	1	LIG1	0.000	
20	 C42	-11.930	-2.140	-24.903	C.3	1	LIG1	0.000	
21	 C43	-12.752	-2.109	-22.920	C.3	1	LIG1	0.000	
22	 C44	-11.420	-1.836	-23.535	C.3	1	LIG1	0.000	
@<TRIPOS>BOND
1 1 3 2
2 2 7 ar
3 3 13 1
4 3 14 1
5 2 4 ar
6 5 6 ar
7 6 9 ar
8 7 11 ar
9 5 8 ar
10 9 12 ar
11 4 10 ar
12 10 12 ar
13 8 11 ar
14 11 12 ar
15 13 15 1
16 13 16 1
17 10 14 1
18 15 18 1
19 17 21 1
20 18 22 1
21 16 19 1
22 17 20 1
23 19 22 1
24 20 22 1
25 21 22 1
@<TRIPOS>SUBSTRUCTURE
1	LIG1	1	GROUP	1 C	LIG
