# created with PyMOL 3.1.3.1
@<TRIPOS>MOLECULE
predicted
36 41 1                 
SMALL
USER_CHARGES
@<TRIPOS>ATOM
1	 O27	10.539	3.171	23.779	O.2	1	LIG1	0.000	
2	 O28	8.754	1.218	20.841	O.2	1	LIG1	0.000	
3	 N30	6.268	0.025	17.451	N.2	1	LIG1	0.000	
4	 N31	5.094	4.131	22.659	N.2	1	LIG1	0.000	
5	 C32	10.110	2.012	23.641	C.2	1	LIG1	0.000	
6	 C33	8.357	0.190	21.356	C.2	1	LIG1	0.000	
7	 C34	5.955	4.102	21.704	C.2	1	LIG1	0.000	
8	 C35	6.979	-0.355	18.489	C.2	1	LIG1	0.000	
9	 C36	13.150	0.057	22.665	C.2	1	LIG1	0.000	
10	 C37	12.357	1.084	23.096	C.2	1	LIG1	0.000	
11	 C38	11.210	-1.284	22.165	C.2	1	LIG1	0.000	
12	 C39	2.800	1.608	20.405	C.2	1	LIG1	0.000	
13	 C40	3.511	1.185	21.507	C.2	1	LIG1	0.000	
14	 C41	7.163	3.622	22.198	C.2	1	LIG1	0.000	
15	 C42	12.597	-1.123	22.193	C.2	1	LIG1	0.000	
16	 C43	10.971	0.930	23.117	C.2	1	LIG1	0.000	
17	 C44	10.388	-0.283	22.693	C.2	1	LIG1	0.000	
18	 C45	5.071	0.597	17.636	C.2	1	LIG1	0.000	
19	 C46	3.311	1.411	19.125	C.2	1	LIG1	0.000	
20	 C47	4.723	0.595	21.349	C.2	1	LIG1	0.000	
21	 C48	6.530	-0.191	19.812	C.2	1	LIG1	0.000	
22	 C49	6.943	3.333	23.533	C.2	1	LIG1	0.000	
23	 C50	4.537	0.812	18.929	C.2	1	LIG1	0.000	
24	 C51	5.258	0.408	20.048	C.2	1	LIG1	0.000	
25	 N52	7.326	-0.564	20.880	N.pl3	1	LIG1	0.000	
26	 N53	8.771	1.741	23.926	N.pl3	1	LIG1	0.000	
27	 N54	5.703	3.694	23.782	N.2	1	LIG1	0.000	
28	 C55	7.946	2.769	24.508	C.3	1	LIG1	0.000	
29	 C56	3.972	2.624	25.063	C.3	1	LIG1	0.000	
30	 C57	4.980	3.640	25.046	C.3	1	LIG1	0.000	
31	 C58	8.242	-2.565	23.817	C.3	1	LIG1	0.000	
32	 C59	7.196	-1.769	21.612	C.3	1	LIG1	0.000	
33	 C60	8.252	0.401	23.836	C.3	1	LIG1	0.000	
34	 C61	8.355	-1.793	22.567	C.3	1	LIG1	0.000	
35	 C62	8.873	-0.387	22.648	C.3	1	LIG1	0.000	
36	 F29	13.421	-2.083	21.775	 F	1	LIG1	0.000	
@<TRIPOS>BOND
1 3 18 ar
2 4 7 ar
3 1 5 2
4 2 6 2
5 6 25 1
6 7 14 ar
7 3 8 ar
8 9 10 ar
9 10 16 ar
10 11 15 ar
11 12 13 ar
12 13 20 ar
13 14 22 ar
14 9 15 ar
15 15 36 1
16 5 16 1
17 11 17 ar
18 16 17 ar
19 18 23 ar
20 12 19 ar
21 20 24 ar
22 8 21 ar
23 21 24 ar
24 22 28 1
25 19 23 ar
26 23 24 ar
27 21 25 1
28 25 32 1
29 5 26 1
30 26 33 1
31 4 27 ar
32 22 27 ar
33 26 28 1
34 29 30 1
35 27 30 1
36 32 34 1
37 33 35 1
38 31 34 1
39 6 35 1
40 17 35 1
41 34 35 1
@<TRIPOS>SUBSTRUCTURE
1	LIG1	1	GROUP	1 C	LIG
