# created with PyMOL 3.1.3.1
@<TRIPOS>MOLECULE
predicted
34 35 1                 
SMALL
USER_CHARGES
@<TRIPOS>ATOM
1	 O36	11.600	4.335	23.504	O.co2	1	LIG1	0.000	
2	 O37	5.985	0.967	16.729	O.2	1	LIG1	0.000	
3	 O38	8.888	1.783	20.803	O.2	1	LIG1	0.000	
4	 O39	7.461	-0.880	22.353	O.2	1	LIG1	0.000	
5	 O43	11.620	5.566	21.567	O.3	1	LIG1	0.000	
6	 C44	11.072	4.651	22.423	C.2	1	LIG1	0.000	
7	 C45	5.451	0.897	17.809	C.2	1	LIG1	0.000	
8	 C46	9.281	1.839	21.945	C.2	1	LIG1	0.000	
9	 C47	8.411	-1.021	21.590	C.2	1	LIG1	0.000	
10	 N48	4.322	1.568	18.146	N.pl3	1	LIG1	0.000	
11	 N49	8.269	-1.543	20.332	N.pl3	1	LIG1	0.000	
12	 N50	9.877	4.140	21.977	N.pl3	1	LIG1	0.000	
13	 N51	9.773	0.701	22.569	N.pl3	1	LIG1	0.000	
14	 C52	12.904	6.032	21.918	C.3	1	LIG1	0.000	
15	 C53	6.863	3.651	21.720	C.3	1	LIG1	0.000	
16	 C54	7.687	4.867	23.754	C.3	1	LIG1	0.000	
17	 C55	7.043	2.452	23.874	C.3	1	LIG1	0.000	
18	 C56	4.028	1.320	19.517	C.3	1	LIG1	0.000	
19	 C57	4.899	0.283	19.936	C.3	1	LIG1	0.000	
20	 C58	6.543	-1.171	18.645	C.3	1	LIG1	0.000	
21	 C59	12.608	-0.329	23.331	C.3	1	LIG1	0.000	
22	 C60	10.368	0.650	23.858	C.3	1	LIG1	0.000	
23	 C61	7.690	3.524	23.002	C.3	1	LIG1	0.000	
24	 C62	10.483	-1.521	22.906	C.3	1	LIG1	0.000	
25	 C63	7.077	-3.459	19.472	C.2	1	LIG1	0.000	
26	 C64	5.951	0.127	18.958	C.3	1	LIG1	0.000	
27	 C65	6.936	-2.028	19.877	C.3	1	LIG1	0.000	
28	 C66	11.201	-0.566	23.818	C.3	1	LIG1	0.000	
29	 C67	9.199	3.122	22.739	C.3	1	LIG1	0.000	
30	 C68	9.796	-0.561	21.922	C.3	1	LIG1	0.000	
31	 N69	6.422	-4.441	19.793	N.2	1	LIG1	0.000	
32	 F40	13.448	-0.911	24.186	 F	1	LIG1	0.000	
33	 F41	12.834	-0.886	22.122	 F	1	LIG1	0.000	
34	 F42	12.887	0.969	23.211	 F	1	LIG1	0.000	
@<TRIPOS>BOND
1 5 6 1
2 1 6 2
3 6 12 1
4 2 7 2
5 3 8 2
6 8 13 1
7 4 9 2
8 9 11 1
9 7 10 1
10 11 27 1
11 12 29 1
12 13 22 1
13 13 30 1
14 5 14 1
15 10 18 1
16 18 19 1
17 20 26 1
18 21 32 1
19 21 33 1
20 21 34 1
21 22 28 1
22 15 23 1
23 16 23 1
24 17 23 1
25 24 30 1
26 25 31 2
27 7 26 1
28 19 26 1
29 20 27 1
30 25 27 1
31 21 28 1
32 24 28 1
33 8 29 1
34 23 29 1
35 9 30 1
@<TRIPOS>SUBSTRUCTURE
1	LIG1	1	GROUP	1 C	LIG
