# created with PyMOL 3.1.3.1
@<TRIPOS>MOLECULE
predicted
35 39 1                 
SMALL
USER_CHARGES
@<TRIPOS>ATOM
1	CL29	-13.208	-3.076	-21.891	Cl	1	LIG1	0.000	
2	 O26	-10.599	2.539	-24.285	O.2	1	LIG1	0.000	
3	 O27	-5.833	2.800	-24.270	O.2	1	LIG1	0.000	
4	 O28	-8.518	0.725	-21.393	O.2	1	LIG1	0.000	
5	 N30	-6.110	-0.606	-17.912	N.2	1	LIG1	0.000	
6	 O31	-8.021	-4.302	-24.458	O.3	1	LIG1	0.000	
7	 C32	-10.077	1.404	-24.147	C.2	1	LIG1	0.000	
8	 C33	-6.989	2.899	-24.047	C.2	1	LIG1	0.000	
9	 C34	-8.132	-0.324	-21.889	C.2	1	LIG1	0.000	
10	 C35	-6.791	-0.997	-18.971	C.2	1	LIG1	0.000	
11	 C36	-12.942	-0.686	-22.995	C.2	1	LIG1	0.000	
12	 C37	-12.232	0.355	-23.510	C.2	1	LIG1	0.000	
13	 C38	-10.889	-1.915	-22.555	C.2	1	LIG1	0.000	
14	 C39	-2.821	1.450	-20.785	C.2	1	LIG1	0.000	
15	 C40	-3.505	1.038	-21.915	C.2	1	LIG1	0.000	
16	 C41	-12.272	-1.828	-22.494	C.2	1	LIG1	0.000	
17	 C42	-10.843	0.278	-23.577	C.2	1	LIG1	0.000	
18	 C43	-10.160	-0.898	-23.168	C.2	1	LIG1	0.000	
19	 C44	-4.968	0.069	-18.073	C.2	1	LIG1	0.000	
20	 C45	-3.301	1.126	-19.516	C.2	1	LIG1	0.000	
21	 C46	-4.658	0.325	-21.788	C.2	1	LIG1	0.000	
22	 C47	-6.366	-0.729	-20.292	C.2	1	LIG1	0.000	
23	 C48	-4.467	0.409	-19.352	C.2	1	LIG1	0.000	
24	 C49	-5.163	0.005	-20.507	C.2	1	LIG1	0.000	
25	 N50	-7.432	3.465	-22.913	N.pl3	1	LIG1	0.000	
26	 N51	-7.126	-1.092	-21.371	N.pl3	1	LIG1	0.000	
27	 N52	-8.728	1.234	-24.439	N.pl3	1	LIG1	0.000	
28	 C53	-8.253	-4.904	-25.748	C.3	1	LIG1	0.000	
29	 C54	-6.531	4.053	-21.973	C.3	1	LIG1	0.000	
30	 C55	-7.996	2.335	-25.022	C.3	1	LIG1	0.000	
31	 C56	-8.082	-2.947	-24.484	C.3	1	LIG1	0.000	
32	 C57	-6.964	-2.306	-22.134	C.3	1	LIG1	0.000	
33	 C58	-8.107	-0.088	-24.398	C.3	1	LIG1	0.000	
34	 C59	-8.084	-2.320	-23.139	C.3	1	LIG1	0.000	
35	 C60	-8.663	-0.922	-23.179	C.3	1	LIG1	0.000	
@<TRIPOS>BOND
1 5 19 ar
2 6 28 1
3 2 7 2
4 3 8 2
5 8 30 1
6 4 9 2
7 9 26 1
8 5 10 ar
9 11 12 ar
10 12 17 ar
11 13 16 ar
12 14 15 ar
13 15 21 ar
14 1 16 1
15 11 16 ar
16 7 17 1
17 13 18 ar
18 17 18 ar
19 19 23 ar
20 14 20 ar
21 21 24 ar
22 10 22 ar
23 22 24 ar
24 20 23 ar
25 23 24 ar
26 8 25 1
27 22 26 1
28 26 32 1
29 7 27 1
30 27 33 1
31 25 29 1
32 27 30 1
33 6 31 1
34 32 34 1
35 33 35 1
36 31 34 1
37 9 35 1
38 18 35 1
39 34 35 1
@<TRIPOS>SUBSTRUCTURE
1	LIG1	1	GROUP	1 C	LIG
