# created with PyMOL 3.1.3.1
@<TRIPOS>MOLECULE
predicted
36 40 1                 
SMALL
USER_CHARGES
@<TRIPOS>ATOM
1	CL30	-13.094	-2.903	-22.107	Cl	1	LIG1	0.000	
2	 O28	-5.475	-5.160	-27.834	O.2	1	LIG1	0.000	
3	 O29	-7.961	0.333	-21.350	O.2	1	LIG1	0.000	
4	 N31	-6.110	-0.652	-17.761	N.2	1	LIG1	0.000	
5	 C32	-5.982	-4.878	-26.832	C.2	1	LIG1	0.000	
6	 C33	-7.782	-0.779	-21.860	C.2	1	LIG1	0.000	
7	 C34	-4.156	-5.685	-25.317	C.3	1	LIG1	0.000	
8	 C35	-5.625	-5.623	-25.536	C.3	1	LIG1	0.000	
9	 C36	-6.647	-1.238	-18.843	C.2	1	LIG1	0.000	
10	 C37	-12.743	0.497	-24.003	C.2	1	LIG1	0.000	
11	 C38	-8.940	-4.652	-23.822	C.2	1	LIG1	0.000	
12	 C39	-13.265	-0.622	-23.383	C.2	1	LIG1	0.000	
13	 C40	-8.269	-4.835	-24.968	C.2	1	LIG1	0.000	
14	 C41	-11.382	0.645	-24.090	C.2	1	LIG1	0.000	
15	 C42	-11.092	-1.367	-22.938	C.2	1	LIG1	0.000	
16	 C43	-8.957	-3.428	-23.186	C.2	1	LIG1	0.000	
17	 C44	-2.683	1.264	-20.421	C.2	1	LIG1	0.000	
18	 C45	-3.219	0.682	-21.560	C.2	1	LIG1	0.000	
19	 C46	-12.445	-1.537	-22.863	C.2	1	LIG1	0.000	
20	 C47	-7.629	-3.736	-25.528	C.2	1	LIG1	0.000	
21	 C48	-7.665	-2.474	-24.918	C.2	1	LIG1	0.000	
22	 C49	-10.563	-0.291	-23.553	C.2	1	LIG1	0.000	
23	 C50	-8.297	-2.332	-23.731	C.2	1	LIG1	0.000	
24	 C51	-5.030	0.053	-17.849	C.2	1	LIG1	0.000	
25	 C52	-3.277	1.070	-19.195	C.2	1	LIG1	0.000	
26	 C53	-4.355	-0.105	-21.506	C.2	1	LIG1	0.000	
27	 C54	-6.125	-1.100	-20.101	C.2	1	LIG1	0.000	
28	 C55	-4.406	0.272	-19.092	C.2	1	LIG1	0.000	
29	 C56	-4.964	-0.320	-20.258	C.2	1	LIG1	0.000	
30	 N57	-6.899	-3.905	-26.695	N.pl3	1	LIG1	0.000	
31	 C58	-6.826	-1.757	-21.283	C.3	1	LIG1	0.000	
32	 C59	-6.963	-1.350	-25.581	C.3	1	LIG1	0.000	
33	 C60	-6.959	-2.826	-27.626	C.3	1	LIG1	0.000	
34	 C61	-6.358	-1.562	-26.838	C.3	1	LIG1	0.000	
35	 C62	-9.119	-0.077	-23.683	C.3	1	LIG1	0.000	
36	 N63	-8.369	-1.083	-23.061	N.pl3	1	LIG1	0.000	
@<TRIPOS>BOND
1 4 24 ar
2 2 5 2
3 5 30 1
4 3 6 2
5 6 31 1
6 7 8 1
7 5 8 1
8 4 9 ar
9 10 12 ar
10 11 16 ar
11 12 19 ar
12 11 13 ar
13 10 14 ar
14 16 23 ar
15 17 18 ar
16 18 26 ar
17 1 19 1
18 15 19 ar
19 13 20 ar
20 20 21 ar
21 21 23 ar
22 14 22 ar
23 15 22 ar
24 23 36 1
25 24 28 ar
26 17 25 ar
27 26 29 ar
28 9 27 ar
29 27 29 ar
30 25 28 ar
31 28 29 ar
32 20 30 1
33 30 33 1
34 27 31 1
35 21 32 1
36 33 34 1
37 32 34 1
38 22 35 1
39 6 36 1
40 35 36 1
@<TRIPOS>SUBSTRUCTURE
1	LIG1	1	GROUP	1 C	LIG
