# created with PyMOL 3.1.3.1
@<TRIPOS>MOLECULE
predicted
24 27 1                 
SMALL
USER_CHARGES
@<TRIPOS>ATOM
1	 O21	-8.398	0.292	-21.440	O.2	1	LIG1	0.000	
2	 N22	-6.098	-0.576	-17.885	N.2	1	LIG1	0.000	
3	 S23	-13.251	-2.052	-23.297	S.2	1	LIG1	0.000	
4	 C24	-8.296	-0.848	-21.851	C.2	1	LIG1	0.000	
5	 C25	-6.785	-1.203	-18.855	C.2	1	LIG1	0.000	
6	 C26	-13.517	-0.428	-23.733	C.2	1	LIG1	0.000	
7	 C27	-11.577	-1.920	-23.361	C.2	1	LIG1	0.000	
8	 C28	-12.330	0.271	-23.856	C.2	1	LIG1	0.000	
9	 C29	-3.066	1.197	-21.091	C.2	1	LIG1	0.000	
10	 C30	-3.752	0.582	-22.098	C.2	1	LIG1	0.000	
11	 C31	-11.235	-0.575	-23.631	C.2	1	LIG1	0.000	
12	 C32	-5.016	0.114	-18.143	C.2	1	LIG1	0.000	
13	 C33	-3.467	1.056	-19.778	C.2	1	LIG1	0.000	
14	 C34	-4.871	-0.161	-21.849	C.2	1	LIG1	0.000	
15	 C35	-6.434	-1.136	-20.195	C.2	1	LIG1	0.000	
16	 C36	-4.586	0.287	-19.477	C.2	1	LIG1	0.000	
17	 C37	-5.296	-0.343	-20.526	C.2	1	LIG1	0.000	
18	 N38	-9.026	-1.208	-22.948	N.pl3	1	LIG1	0.000	
19	 C39	-7.274	-1.832	-21.235	C.3	1	LIG1	0.000	
20	 C40	-7.855	0.474	-25.059	C.3	1	LIG1	0.000	
21	 C41	-10.571	-2.996	-23.030	C.3	1	LIG1	0.000	
22	 C42	-9.166	-2.585	-23.348	C.3	1	LIG1	0.000	
23	 C43	-9.266	-0.049	-25.096	C.3	1	LIG1	0.000	
24	 C44	-9.806	-0.211	-23.670	C.3	1	LIG1	0.000	
@<TRIPOS>BOND
1 2 12 ar
2 3 7 ar
3 1 4 2
4 4 19 1
5 2 5 ar
6 3 6 ar
7 7 21 1
8 6 8 ar
9 9 10 ar
10 10 14 ar
11 7 11 ar
12 8 11 ar
13 12 16 ar
14 9 13 ar
15 14 17 ar
16 5 15 ar
17 15 17 ar
18 13 16 ar
19 16 17 ar
20 4 18 1
21 15 19 1
22 20 23 1
23 21 22 1
24 18 22 1
25 23 24 1
26 11 24 1
27 18 24 1
@<TRIPOS>SUBSTRUCTURE
1	LIG1	1	GROUP	1 C	LIG
