# created with PyMOL 3.1.3.1
@<TRIPOS>MOLECULE
predicted
41 46 1                 
SMALL
USER_CHARGES
@<TRIPOS>ATOM
1	CL33	13.649	-2.015	22.227	Cl	1	LIG1	0.000	
2	 O30	10.166	3.539	23.392	O.2	1	LIG1	0.000	
3	 O31	8.068	4.969	24.285	O.2	1	LIG1	0.000	
4	 O32	8.635	1.445	20.783	O.2	1	LIG1	0.000	
5	 N34	6.209	0.086	17.438	N.2	1	LIG1	0.000	
6	 O35	6.947	9.973	24.171	O.3	1	LIG1	0.000	
7	 C36	9.791	2.378	23.405	C.2	1	LIG1	0.000	
8	 C37	7.638	4.344	23.369	C.2	1	LIG1	0.000	
9	 C38	8.268	0.412	21.318	C.2	1	LIG1	0.000	
10	 C39	6.939	-0.279	18.472	C.2	1	LIG1	0.000	
11	 C40	4.598	7.913	22.183	C.2	1	LIG1	0.000	
12	 C41	12.976	0.496	22.909	C.2	1	LIG1	0.000	
13	 C42	5.085	8.961	23.005	C.2	1	LIG1	0.000	
14	 C43	12.115	1.522	23.183	C.2	1	LIG1	0.000	
15	 C44	5.457	6.926	21.757	C.2	1	LIG1	0.000	
16	 C45	7.303	8.024	22.927	C.2	1	LIG1	0.000	
17	 C46	11.136	-0.946	22.386	C.2	1	LIG1	0.000	
18	 C47	2.914	1.965	20.384	C.2	1	LIG1	0.000	
19	 C48	3.648	1.589	21.489	C.2	1	LIG1	0.000	
20	 C49	12.498	-0.734	22.515	C.2	1	LIG1	0.000	
21	 C50	6.438	9.004	23.370	C.2	1	LIG1	0.000	
22	 C51	10.750	1.311	23.105	C.2	1	LIG1	0.000	
23	 C52	6.828	7.033	22.127	C.2	1	LIG1	0.000	
24	 C53	10.258	0.061	22.757	C.2	1	LIG1	0.000	
25	 C54	5.044	0.696	17.629	C.2	1	LIG1	0.000	
26	 C55	3.375	1.666	19.108	C.2	1	LIG1	0.000	
27	 C56	4.816	0.928	21.317	C.2	1	LIG1	0.000	
28	 C57	6.505	-0.061	19.772	C.2	1	LIG1	0.000	
29	 C58	4.555	1.003	18.912	C.2	1	LIG1	0.000	
30	 C59	5.293	0.634	20.027	C.2	1	LIG1	0.000	
31	 N60	7.540	4.743	22.077	N.pl3	1	LIG1	0.000	
32	 N61	7.297	-0.387	20.829	N.pl3	1	LIG1	0.000	
33	 N62	8.423	2.058	23.559	N.pl3	1	LIG1	0.000	
34	 C63	6.307	11.146	24.288	C.3	1	LIG1	0.000	
35	 C64	7.333	2.939	23.576	C.3	1	LIG1	0.000	
36	 C65	7.765	6.041	21.614	C.3	1	LIG1	0.000	
37	 C66	8.165	-2.262	23.847	C.3	1	LIG1	0.000	
38	 C67	7.200	-1.584	21.594	C.3	1	LIG1	0.000	
39	 C68	8.047	0.703	23.750	C.3	1	LIG1	0.000	
40	 C69	8.317	-1.516	22.582	C.3	1	LIG1	0.000	
41	 C70	8.766	-0.112	22.625	C.3	1	LIG1	0.000	
@<TRIPOS>BOND
1 5 25 ar
2 6 21 1
3 2 7 2
4 3 8 2
5 8 35 1
6 4 9 2
7 9 32 1
8 5 10 ar
9 11 15 ar
10 12 14 ar
11 11 13 ar
12 14 22 ar
13 15 23 ar
14 17 20 ar
15 18 19 ar
16 19 27 ar
17 1 20 1
18 12 20 ar
19 13 21 ar
20 16 21 ar
21 7 22 1
22 16 23 ar
23 23 36 1
24 17 24 ar
25 22 24 ar
26 25 29 ar
27 18 26 ar
28 27 30 ar
29 10 28 ar
30 28 30 ar
31 26 29 ar
32 29 30 ar
33 8 31 1
34 28 32 1
35 32 38 1
36 7 33 1
37 33 39 1
38 6 34 1
39 33 35 1
40 31 36 1
41 38 40 1
42 39 41 1
43 37 40 1
44 9 41 1
45 24 41 1
46 40 41 1
@<TRIPOS>SUBSTRUCTURE
1	LIG1	1	GROUP	1 C	LIG
