# created with PyMOL 3.1.3.1
@<TRIPOS>MOLECULE
predicted
27 31 1                 
SMALL
USER_CHARGES
@<TRIPOS>ATOM
1	CL19	9.943	-3.439	26.952	Cl	1	LIG1	0.000	
2	 O17	5.439	-3.386	20.999	O.2	1	LIG1	0.000	
3	 O18	8.545	-0.086	21.228	O.2	1	LIG1	0.000	
4	 N20	6.112	-0.232	17.585	N.2	1	LIG1	0.000	
5	 C21	6.416	-2.779	21.390	C.2	1	LIG1	0.000	
6	 C22	7.978	-1.148	21.493	C.2	1	LIG1	0.000	
7	 C23	6.695	-0.900	18.544	C.2	1	LIG1	0.000	
8	 C24	13.544	-3.225	25.513	C.2	1	LIG1	0.000	
9	 C25	13.326	-2.804	24.232	C.2	1	LIG1	0.000	
10	 C26	12.486	-3.398	26.337	C.2	1	LIG1	0.000	
11	 C27	12.081	-2.590	23.785	C.2	1	LIG1	0.000	
12	 C28	2.879	1.451	20.702	C.2	1	LIG1	0.000	
13	 C29	3.463	0.747	21.710	C.2	1	LIG1	0.000	
14	 C30	11.216	-3.200	25.876	C.2	1	LIG1	0.000	
15	 C31	10.985	-2.774	24.598	C.2	1	LIG1	0.000	
16	 C32	5.007	0.481	17.837	C.2	1	LIG1	0.000	
17	 C33	3.374	1.389	19.438	C.2	1	LIG1	0.000	
18	 C34	4.540	-0.026	21.459	C.2	1	LIG1	0.000	
19	 C35	6.179	-0.929	19.809	C.2	1	LIG1	0.000	
20	 C36	4.475	0.591	19.146	C.2	1	LIG1	0.000	
21	 C37	5.064	-0.118	20.161	C.2	1	LIG1	0.000	
22	 N38	6.821	-1.612	20.863	N.pl3	1	LIG1	0.000	
23	 N39	7.236	-3.117	22.348	N.pl3	1	LIG1	0.000	
24	 C40	8.583	-1.606	23.867	C.3	1	LIG1	0.000	
25	 C41	9.646	-2.771	22.520	C.3	1	LIG1	0.000	
26	 C42	9.629	-2.649	24.141	C.3	1	LIG1	0.000	
27	 C43	8.293	-2.132	22.492	C.3	1	LIG1	0.000	
@<TRIPOS>BOND
1 2 5 2
2 4 16 ar
3 5 22 1
4 5 23 1
5 3 6 2
6 6 22 1
7 4 7 ar
8 8 10 ar
9 8 9 ar
10 10 14 ar
11 9 11 ar
12 12 13 ar
13 13 18 ar
14 1 14 1
15 11 15 ar
16 14 15 ar
17 16 20 ar
18 12 17 ar
19 18 21 ar
20 7 19 ar
21 19 21 ar
22 17 20 ar
23 20 21 ar
24 19 22 1
25 23 27 1
26 24 26 1
27 15 26 1
28 25 26 1
29 6 27 1
30 24 27 1
31 25 27 1
@<TRIPOS>SUBSTRUCTURE
1	LIG1	1	GROUP	1 C	LIG
