# created with PyMOL 3.1.3.1
@<TRIPOS>MOLECULE
predicted
23 26 1                 
SMALL
USER_CHARGES
@<TRIPOS>ATOM
1	 O19	8.333	1.465	20.497	O.2	1	LIG1	0.000	
2	 N20	6.003	0.252	17.217	N.2	1	LIG1	0.000	
3	 S21	12.888	-1.356	22.950	S.2	1	LIG1	0.000	
4	 C22	8.201	0.420	21.088	C.2	1	LIG1	0.000	
5	 C23	6.687	-0.238	18.233	C.2	1	LIG1	0.000	
6	 C24	13.413	0.230	23.093	C.2	1	LIG1	0.000	
7	 C25	11.276	-0.918	22.868	C.2	1	LIG1	0.000	
8	 C26	12.385	1.131	22.968	C.2	1	LIG1	0.000	
9	 C27	2.814	2.112	20.185	C.2	1	LIG1	0.000	
10	 C28	3.497	1.635	21.250	C.2	1	LIG1	0.000	
11	 C29	11.161	0.503	22.849	C.2	1	LIG1	0.000	
12	 C30	4.894	0.900	17.404	C.2	1	LIG1	0.000	
13	 C31	3.249	1.885	18.906	C.2	1	LIG1	0.000	
14	 C32	4.656	0.940	21.092	C.2	1	LIG1	0.000	
15	 C33	6.304	-0.045	19.546	C.2	1	LIG1	0.000	
16	 C34	4.413	1.167	18.690	C.2	1	LIG1	0.000	
17	 C35	5.129	0.678	19.799	C.2	1	LIG1	0.000	
18	 N36	8.913	0.160	22.217	N.pl3	1	LIG1	0.000	
19	 C37	7.163	-0.586	20.632	C.3	1	LIG1	0.000	
20	 C38	10.100	-1.825	22.695	C.3	1	LIG1	0.000	
21	 C39	8.838	-1.093	22.920	C.3	1	LIG1	0.000	
22	 C40	9.239	1.972	23.732	C.3	1	LIG1	0.000	
23	 C41	9.833	1.143	22.670	C.3	1	LIG1	0.000	
@<TRIPOS>BOND
1 2 12 ar
2 3 7 ar
3 1 4 2
4 4 19 1
5 2 5 ar
6 3 6 ar
7 7 20 1
8 6 8 ar
9 9 10 ar
10 10 14 ar
11 7 11 ar
12 8 11 ar
13 12 16 ar
14 9 13 ar
15 14 17 ar
16 5 15 ar
17 15 17 ar
18 13 16 ar
19 16 17 ar
20 4 18 1
21 15 19 1
22 20 21 1
23 18 21 1
24 22 23 1
25 11 23 1
26 18 23 1
@<TRIPOS>SUBSTRUCTURE
1	LIG1	1	GROUP	1 C	LIG
