# created with PyMOL 3.1.3.1
@<TRIPOS>MOLECULE
predicted
35 40 1                 
SMALL
USER_CHARGES
@<TRIPOS>ATOM
1	 O25	-10.720	2.390	-24.419	O.2	1	LIG1	0.000	
2	 O26	-8.656	0.601	-21.468	O.2	1	LIG1	0.000	
3	 N28	-6.155	-0.511	-18.023	N.2	1	LIG1	0.000	
4	 N29	-5.404	3.681	-23.286	N.2	1	LIG1	0.000	
5	 C30	-10.209	1.267	-24.240	C.2	1	LIG1	0.000	
6	 C31	-8.242	-0.440	-21.956	C.2	1	LIG1	0.000	
7	 C32	-6.326	3.740	-22.371	C.2	1	LIG1	0.000	
8	 C33	-6.849	-0.944	-19.056	C.2	1	LIG1	0.000	
9	 C34	-13.087	-0.771	-22.990	C.2	1	LIG1	0.000	
10	 C35	-12.365	0.263	-23.524	C.2	1	LIG1	0.000	
11	 C36	-11.045	-2.039	-22.589	C.2	1	LIG1	0.000	
12	 C37	-2.806	1.266	-21.010	C.2	1	LIG1	0.000	
13	 C38	-3.492	0.798	-22.105	C.2	1	LIG1	0.000	
14	 C39	-7.499	3.195	-22.919	C.2	1	LIG1	0.000	
15	 C40	-12.442	-1.924	-22.520	C.2	1	LIG1	0.000	
16	 C41	-10.974	0.164	-23.620	C.2	1	LIG1	0.000	
17	 C42	-10.307	-1.023	-23.210	C.2	1	LIG1	0.000	
18	 C43	-4.992	0.135	-18.216	C.2	1	LIG1	0.000	
19	 C44	-3.295	1.049	-19.717	C.2	1	LIG1	0.000	
20	 C45	-4.668	0.135	-21.929	C.2	1	LIG1	0.000	
21	 C46	-6.426	-0.759	-20.382	C.2	1	LIG1	0.000	
22	 C47	-7.180	2.800	-24.208	C.2	1	LIG1	0.000	
23	 C48	-4.484	0.378	-19.513	C.2	1	LIG1	0.000	
24	 C49	-5.194	-0.081	-20.639	C.2	1	LIG1	0.000	
25	 N50	-7.213	-1.163	-21.454	N.pl3	1	LIG1	0.000	
26	 N51	-8.860	1.064	-24.545	N.pl3	1	LIG1	0.000	
27	 N52	-5.941	3.141	-24.415	N.2	1	LIG1	0.000	
28	 C53	-8.127	2.123	-25.215	C.3	1	LIG1	0.000	
29	 C54	-5.161	2.937	-25.611	C.3	1	LIG1	0.000	
30	 C55	-8.142	-3.253	-24.348	C.3	1	LIG1	0.000	
31	 C56	-7.061	-2.397	-22.157	C.3	1	LIG1	0.000	
32	 C57	-8.252	-0.264	-24.451	C.3	1	LIG1	0.000	
33	 C58	-8.216	-2.457	-23.120	C.3	1	LIG1	0.000	
34	 C59	-8.793	-1.069	-23.232	C.3	1	LIG1	0.000	
35	 F27	-13.182	-2.906	-22.010	 F	1	LIG1	0.000	
@<TRIPOS>BOND
1 3 18 ar
2 4 27 ar
3 1 5 2
4 5 16 1
5 2 6 2
6 6 34 1
7 4 7 ar
8 3 8 ar
9 9 15 ar
10 9 10 ar
11 11 17 ar
12 12 13 ar
13 13 20 ar
14 7 14 ar
15 11 15 ar
16 15 35 1
17 10 16 ar
18 16 17 ar
19 18 23 ar
20 12 19 ar
21 20 24 ar
22 8 21 ar
23 21 24 ar
24 14 22 ar
25 22 27 ar
26 19 23 ar
27 23 24 ar
28 6 25 1
29 21 25 1
30 5 26 1
31 26 28 1
32 27 29 1
33 22 28 1
34 30 33 1
35 25 31 1
36 26 32 1
37 31 33 1
38 33 34 1
39 17 34 1
40 32 34 1
@<TRIPOS>SUBSTRUCTURE
1	LIG1	1	GROUP	1 C	LIG
