# created with PyMOL 3.1.3.1
@<TRIPOS>MOLECULE
predicted
36 41 1                 
SMALL
USER_CHARGES
@<TRIPOS>ATOM
1	CL27	13.255	-2.048	21.858	Cl	1	LIG1	0.000	
2	 O25	9.790	3.300	23.748	O.2	1	LIG1	0.000	
3	 O26	8.283	1.304	20.780	O.2	1	LIG1	0.000	
4	 N28	6.004	0.006	17.286	N.2	1	LIG1	0.000	
5	 N29	5.253	3.957	23.303	N.pl3	1	LIG1	0.000	
6	 O30	7.014	-3.356	23.962	O.3	1	LIG1	0.000	
7	 C31	9.420	2.140	23.605	C.2	1	LIG1	0.000	
8	 C32	7.911	0.254	21.255	C.2	1	LIG1	0.000	
9	 C33	6.673	-0.386	18.346	C.2	1	LIG1	0.000	
10	 C34	4.891	4.440	22.077	C.2	1	LIG1	0.000	
11	 C35	12.587	0.358	22.790	C.2	1	LIG1	0.000	
12	 C36	11.715	1.336	23.166	C.2	1	LIG1	0.000	
13	 C37	10.749	-1.092	22.238	C.2	1	LIG1	0.000	
14	 C38	2.533	1.793	20.098	C.2	1	LIG1	0.000	
15	 C39	3.200	1.367	21.228	C.2	1	LIG1	0.000	
16	 C40	12.117	-0.847	22.317	C.2	1	LIG1	0.000	
17	 C41	10.359	1.107	23.124	C.2	1	LIG1	0.000	
18	 C42	9.860	-0.138	22.699	C.2	1	LIG1	0.000	
19	 C43	4.825	0.627	17.423	C.2	1	LIG1	0.000	
20	 C44	3.068	1.546	18.839	C.2	1	LIG1	0.000	
21	 C45	4.385	0.719	21.106	C.2	1	LIG1	0.000	
22	 C46	6.193	-0.172	19.640	C.2	1	LIG1	0.000	
23	 C47	6.442	3.450	23.219	C.2	1	LIG1	0.000	
24	 C48	5.921	4.234	21.256	C.2	1	LIG1	0.000	
25	 C49	4.267	0.895	18.691	C.2	1	LIG1	0.000	
26	 C50	4.952	0.484	19.843	C.2	1	LIG1	0.000	
27	 N51	6.945	-0.539	20.722	N.pl3	1	LIG1	0.000	
28	 N52	8.091	1.797	23.828	N.pl3	1	LIG1	0.000	
29	 N53	6.879	3.629	21.985	N.2	1	LIG1	0.000	
30	 C54	7.096	-4.000	25.199	C.3	1	LIG1	0.000	
31	 C55	7.186	2.755	24.358	C.3	1	LIG1	0.000	
32	 C56	7.956	-2.448	23.753	C.3	1	LIG1	0.000	
33	 C57	6.841	-1.772	21.445	C.3	1	LIG1	0.000	
34	 C58	7.636	0.425	23.720	C.3	1	LIG1	0.000	
35	 C59	7.929	-1.746	22.468	C.3	1	LIG1	0.000	
36	 C60	8.374	-0.315	22.574	C.3	1	LIG1	0.000	
@<TRIPOS>BOND
1 4 19 ar
2 5 10 ar
3 6 32 1
4 2 7 2
5 7 17 1
6 3 8 2
7 8 36 1
8 4 9 ar
9 10 24 ar
10 11 16 ar
11 11 12 ar
12 13 18 ar
13 14 15 ar
14 15 21 ar
15 1 16 1
16 13 16 ar
17 12 17 ar
18 17 18 ar
19 19 25 ar
20 14 20 ar
21 21 26 ar
22 9 22 ar
23 22 26 ar
24 5 23 ar
25 23 29 ar
26 24 29 ar
27 20 25 ar
28 25 26 ar
29 8 27 1
30 22 27 1
31 7 28 1
32 28 31 1
33 6 30 1
34 23 31 1
35 32 35 1
36 27 33 1
37 28 34 1
38 33 35 1
39 35 36 1
40 18 36 1
41 34 36 1
@<TRIPOS>SUBSTRUCTURE
1	LIG1	1	GROUP	1 C	LIG
