# created with PyMOL 3.1.3.1
@<TRIPOS>MOLECULE
predicted
35 40 1                 
SMALL
USER_CHARGES
@<TRIPOS>ATOM
1	 O25	10.419	3.105	23.976	O.2	1	LIG1	0.000	
2	 O26	8.681	1.177	20.963	O.2	1	LIG1	0.000	
3	 N28	6.174	0.004	17.544	N.2	1	LIG1	0.000	
4	 N29	5.684	3.619	23.665	N.2	1	LIG1	0.000	
5	 C30	10.003	1.953	23.809	C.2	1	LIG1	0.000	
6	 C31	8.275	0.136	21.463	C.2	1	LIG1	0.000	
7	 C32	6.888	-0.390	18.585	C.2	1	LIG1	0.000	
8	 C33	6.952	3.359	23.554	C.2	1	LIG1	0.000	
9	 C34	13.068	0.055	22.828	C.2	1	LIG1	0.000	
10	 C35	12.256	1.069	23.267	C.2	1	LIG1	0.000	
11	 C36	11.143	-1.315	22.303	C.2	1	LIG1	0.000	
12	 C37	2.726	1.630	20.483	C.2	1	LIG1	0.000	
13	 C38	3.440	1.203	21.589	C.2	1	LIG1	0.000	
14	 C39	7.423	3.850	22.369	C.2	1	LIG1	0.000	
15	 C40	12.531	-1.125	22.351	C.2	1	LIG1	0.000	
16	 C41	10.874	0.893	23.274	C.2	1	LIG1	0.000	
17	 C42	10.307	-0.329	22.838	C.2	1	LIG1	0.000	
18	 C43	4.982	0.589	17.723	C.2	1	LIG1	0.000	
19	 C44	3.237	1.423	19.203	C.2	1	LIG1	0.000	
20	 C45	4.650	0.600	21.429	C.2	1	LIG1	0.000	
21	 C46	6.448	-0.217	19.903	C.2	1	LIG1	0.000	
22	 C47	6.311	4.408	21.720	C.2	1	LIG1	0.000	
23	 C48	4.457	0.811	19.009	C.2	1	LIG1	0.000	
24	 C49	5.191	0.397	20.138	C.2	1	LIG1	0.000	
25	 N50	7.246	-0.599	20.982	N.pl3	1	LIG1	0.000	
26	 N51	8.648	1.668	24.051	N.pl3	1	LIG1	0.000	
27	 N52	5.292	4.255	22.518	N.2	1	LIG1	0.000	
28	 C53	7.803	2.659	24.649	C.3	1	LIG1	0.000	
29	 C54	3.983	4.714	22.276	C.3	1	LIG1	0.000	
30	 C55	8.169	-2.647	23.911	C.3	1	LIG1	0.000	
31	 C56	7.105	-1.821	21.720	C.3	1	LIG1	0.000	
32	 C57	8.138	0.308	23.948	C.3	1	LIG1	0.000	
33	 C58	8.287	-1.861	22.664	C.3	1	LIG1	0.000	
34	 C59	8.798	-0.458	22.770	C.3	1	LIG1	0.000	
35	 F27	13.354	-2.077	21.924	 F	1	LIG1	0.000	
@<TRIPOS>BOND
1 3 18 ar
2 1 5 2
3 5 16 1
4 2 6 2
5 6 34 1
6 3 7 ar
7 4 8 ar
8 8 14 ar
9 9 15 ar
10 9 10 ar
11 11 17 ar
12 12 13 ar
13 13 20 ar
14 14 22 ar
15 11 15 ar
16 15 35 1
17 10 16 ar
18 16 17 ar
19 18 23 ar
20 12 19 ar
21 20 24 ar
22 7 21 ar
23 21 24 ar
24 22 27 ar
25 19 23 ar
26 23 24 ar
27 6 25 1
28 21 25 1
29 5 26 1
30 26 28 1
31 4 27 ar
32 27 29 1
33 8 28 1
34 30 33 1
35 25 31 1
36 26 32 1
37 31 33 1
38 33 34 1
39 17 34 1
40 32 34 1
@<TRIPOS>SUBSTRUCTURE
1	LIG1	1	GROUP	1 C	LIG
