# created with PyMOL 3.1.3.1
@<TRIPOS>MOLECULE
predicted
39 44 1                 
SMALL
USER_CHARGES
@<TRIPOS>ATOM
1	CL31	13.538	-1.866	21.841	Cl	1	LIG1	0.000	
2	 O28	10.199	3.593	23.637	O.2	1	LIG1	0.000	
3	 O29	5.462	2.904	23.694	O.2	1	LIG1	0.000	
4	 O30	8.545	1.533	20.802	O.2	1	LIG1	0.000	
5	 N32	6.224	0.096	17.342	N.2	1	LIG1	0.000	
6	 C33	9.820	2.421	23.571	C.2	1	LIG1	0.000	
7	 C34	6.486	3.445	23.426	C.2	1	LIG1	0.000	
8	 C35	8.198	0.479	21.304	C.2	1	LIG1	0.000	
9	 C36	6.939	-0.268	18.402	C.2	1	LIG1	0.000	
10	 C37	7.983	-6.531	23.874	C.2	1	LIG1	0.000	
11	 C38	6.951	-5.833	23.226	C.2	1	LIG1	0.000	
12	 C39	8.996	-5.819	24.527	C.2	1	LIG1	0.000	
13	 C40	12.911	0.555	22.749	C.2	1	LIG1	0.000	
14	 C41	12.072	1.552	23.132	C.2	1	LIG1	0.000	
15	 C42	6.941	-4.421	23.231	C.2	1	LIG1	0.000	
16	 C43	8.976	-4.418	24.529	C.2	1	LIG1	0.000	
17	 C44	11.029	-0.862	22.234	C.2	1	LIG1	0.000	
18	 C45	2.781	1.842	20.205	C.2	1	LIG1	0.000	
19	 C46	3.482	1.458	21.339	C.2	1	LIG1	0.000	
20	 C47	12.402	-0.648	22.296	C.2	1	LIG1	0.000	
21	 C48	10.714	1.353	23.130	C.2	1	LIG1	0.000	
22	 C49	7.968	-3.715	23.850	C.2	1	LIG1	0.000	
23	 C50	10.183	0.117	22.715	C.2	1	LIG1	0.000	
24	 C51	5.040	0.675	17.493	C.2	1	LIG1	0.000	
25	 C52	3.296	1.588	18.942	C.2	1	LIG1	0.000	
26	 C53	4.691	0.825	21.209	C.2	1	LIG1	0.000	
27	 C54	6.474	-0.047	19.705	C.2	1	LIG1	0.000	
28	 C55	4.503	0.952	18.779	C.2	1	LIG1	0.000	
29	 C56	5.220	0.588	19.920	C.2	1	LIG1	0.000	
30	 N57	6.643	4.203	22.336	N.pl3	1	LIG1	0.000	
31	 N58	7.258	-0.363	20.789	N.pl3	1	LIG1	0.000	
32	 N59	8.491	2.139	23.791	N.pl3	1	LIG1	0.000	
33	 C60	5.557	4.517	21.484	C.3	1	LIG1	0.000	
34	 C61	7.663	3.211	24.243	C.3	1	LIG1	0.000	
35	 C62	7.992	-2.172	23.881	C.3	1	LIG1	0.000	
36	 C63	7.165	-1.581	21.531	C.3	1	LIG1	0.000	
37	 C64	7.998	0.746	23.789	C.3	1	LIG1	0.000	
38	 C65	8.247	-1.508	22.593	C.3	1	LIG1	0.000	
39	 C66	8.691	-0.068	22.623	C.3	1	LIG1	0.000	
@<TRIPOS>BOND
1 5 24 ar
2 2 6 2
3 3 7 2
4 7 34 1
5 4 8 2
6 8 31 1
7 5 9 ar
8 10 12 ar
9 10 11 ar
10 12 16 ar
11 13 14 ar
12 14 21 ar
13 11 15 ar
14 17 20 ar
15 18 19 ar
16 19 26 ar
17 1 20 1
18 13 20 ar
19 6 21 1
20 15 22 ar
21 16 22 ar
22 17 23 ar
23 21 23 ar
24 24 28 ar
25 18 25 ar
26 26 29 ar
27 9 27 ar
28 27 29 ar
29 25 28 ar
30 28 29 ar
31 7 30 1
32 27 31 1
33 31 36 1
34 6 32 1
35 32 37 1
36 30 33 1
37 32 34 1
38 22 35 1
39 36 38 1
40 37 39 1
41 35 38 1
42 8 39 1
43 23 39 1
44 38 39 1
@<TRIPOS>SUBSTRUCTURE
1	LIG1	1	GROUP	1 C	LIG
