# created with PyMOL 3.1.3.1
@<TRIPOS>MOLECULE
predicted
39 43 1                 
SMALL
USER_CHARGES
@<TRIPOS>ATOM
1	 O29	10.542	3.322	23.788	O.2	1	LIG1	0.000	
2	 O30	5.920	3.760	23.592	O.2	1	LIG1	0.000	
3	 O31	8.732	1.365	20.969	O.2	1	LIG1	0.000	
4	 O32	8.108	-4.771	22.997	O.2	1	LIG1	0.000	
5	 O33	6.347	-3.826	24.355	O.2	1	LIG1	0.000	
6	 N35	6.232	-0.047	17.534	N.2	1	LIG1	0.000	
7	 C36	10.111	2.159	23.705	C.2	1	LIG1	0.000	
8	 C37	7.093	3.662	23.437	C.2	1	LIG1	0.000	
9	 C38	8.368	0.301	21.478	C.2	1	LIG1	0.000	
10	 C39	6.975	-0.408	18.586	C.2	1	LIG1	0.000	
11	 C40	13.131	0.140	22.912	C.2	1	LIG1	0.000	
12	 C41	12.329	1.194	23.264	C.2	1	LIG1	0.000	
13	 C42	11.223	-1.225	22.452	C.2	1	LIG1	0.000	
14	 C43	2.842	1.688	20.493	C.2	1	LIG1	0.000	
15	 C44	3.590	1.313	21.611	C.2	1	LIG1	0.000	
16	 C45	12.597	-1.062	22.500	C.2	1	LIG1	0.000	
17	 C46	10.970	1.053	23.272	C.2	1	LIG1	0.000	
18	 C47	10.389	-0.174	22.879	C.2	1	LIG1	0.000	
19	 C48	5.036	0.530	17.727	C.2	1	LIG1	0.000	
20	 C49	3.328	1.425	19.209	C.2	1	LIG1	0.000	
21	 C50	4.812	0.691	21.461	C.2	1	LIG1	0.000	
22	 C51	6.558	-0.185	19.903	C.2	1	LIG1	0.000	
23	 C52	4.545	0.802	19.023	C.2	1	LIG1	0.000	
24	 C53	5.304	0.440	20.160	C.2	1	LIG1	0.000	
25	 N54	7.643	4.158	22.335	N.pl3	1	LIG1	0.000	
26	 N55	7.387	-0.506	20.992	N.pl3	1	LIG1	0.000	
27	 N56	8.762	1.912	23.957	N.pl3	1	LIG1	0.000	
28	 N57	8.476	-4.686	25.566	N.3	1	LIG1	0.000	
29	 C58	6.896	4.923	21.386	C.3	1	LIG1	0.000	
30	 C59	9.831	-5.180	25.478	C.3	1	LIG1	0.000	
31	 C60	8.065	-4.161	26.853	C.3	1	LIG1	0.000	
32	 C61	7.908	2.958	24.451	C.3	1	LIG1	0.000	
33	 C62	7.306	-1.722	21.762	C.3	1	LIG1	0.000	
34	 C63	8.237	0.561	23.957	C.3	1	LIG1	0.000	
35	 C64	8.518	-2.375	24.061	C.3	1	LIG1	0.000	
36	 C65	8.363	-1.682	22.775	C.3	1	LIG1	0.000	
37	 C66	8.892	-0.262	22.794	C.3	1	LIG1	0.000	
38	 S67	7.822	-3.972	24.215	S.O2	1	LIG1	0.000	
39	 F34	13.432	-2.041	22.161	 F	1	LIG1	0.000	
@<TRIPOS>BOND
1 6 19 ar
2 1 7 2
3 2 8 2
4 8 32 1
5 3 9 2
6 9 26 1
7 6 10 ar
8 11 12 ar
9 12 17 ar
10 13 16 ar
11 14 15 ar
12 15 21 ar
13 11 16 ar
14 16 39 1
15 7 17 1
16 13 18 ar
17 17 18 ar
18 19 23 ar
19 14 20 ar
20 21 24 ar
21 10 22 ar
22 22 24 ar
23 20 23 ar
24 23 24 ar
25 8 25 1
26 22 26 1
27 26 33 1
28 7 27 1
29 27 34 1
30 28 30 1
31 28 31 1
32 25 29 1
33 27 32 1
34 33 36 1
35 34 37 1
36 35 38 1
37 35 36 1
38 9 37 1
39 18 37 1
40 36 37 1
41 4 38 2
42 5 38 2
43 28 38 1
@<TRIPOS>SUBSTRUCTURE
1	LIG1	1	GROUP	1 C	LIG
