# created with PyMOL 3.1.3.1
@<TRIPOS>MOLECULE
predicted
44 52 1                 
SMALL
USER_CHARGES
@<TRIPOS>ATOM
1	CL36	13.345	-2.110	21.981	Cl	1	LIG1	0.000	
2	 O34	10.250	3.393	23.918	O.2	1	LIG1	0.000	
3	 O35	8.487	1.435	21.045	O.2	1	LIG1	0.000	
4	 N37	9.188	-4.843	25.064	N.2	1	LIG1	0.000	
5	 N38	7.199	-4.356	26.293	N.2	1	LIG1	0.000	
6	 N39	6.053	0.051	17.602	N.2	1	LIG1	0.000	
7	 O40	4.646	8.189	21.726	O.3	1	LIG1	0.000	
8	 C41	9.813	2.247	23.775	C.2	1	LIG1	0.000	
9	 C42	8.106	0.387	21.518	C.2	1	LIG1	0.000	
10	 C43	7.947	-4.294	25.153	C.2	1	LIG1	0.000	
11	 C44	9.708	-5.440	26.128	C.2	1	LIG1	0.000	
12	 C45	7.722	-4.956	27.358	C.2	1	LIG1	0.000	
13	 C46	6.767	-0.322	18.655	C.2	1	LIG1	0.000	
14	 C47	9.009	-5.510	27.320	C.2	1	LIG1	0.000	
15	 C48	12.836	0.280	22.922	C.2	1	LIG1	0.000	
16	 C49	12.035	1.300	23.314	C.2	1	LIG1	0.000	
17	 C50	10.897	-1.073	22.432	C.2	1	LIG1	0.000	
18	 C51	2.691	1.912	20.502	C.2	1	LIG1	0.000	
19	 C52	3.408	1.529	21.626	C.2	1	LIG1	0.000	
20	 C53	12.290	-0.902	22.483	C.2	1	LIG1	0.000	
21	 C54	10.663	1.147	23.317	C.2	1	LIG1	0.000	
22	 C55	10.087	-0.064	22.914	C.2	1	LIG1	0.000	
23	 C56	4.879	0.661	17.772	C.2	1	LIG1	0.000	
24	 C57	3.183	1.617	19.232	C.2	1	LIG1	0.000	
25	 C58	4.581	0.869	21.473	C.2	1	LIG1	0.000	
26	 C59	6.337	-0.065	19.952	C.2	1	LIG1	0.000	
27	 C60	4.373	0.960	19.052	C.2	1	LIG1	0.000	
28	 C61	5.098	0.594	20.190	C.2	1	LIG1	0.000	
29	 N62	7.464	-3.608	24.059	N.pl3	1	LIG1	0.000	
30	 N63	7.137	-0.415	21.028	N.pl3	1	LIG1	0.000	
31	 N64	8.467	2.016	23.985	N.pl3	1	LIG1	0.000	
32	 C65	5.276	6.906	21.047	C.3	1	LIG1	0.000	
33	 C66	4.719	7.444	23.034	C.3	1	LIG1	0.000	
34	 C67	7.628	3.060	24.439	C.3	1	LIG1	0.000	
35	 C68	5.395	6.361	22.354	C.3	1	LIG1	0.000	
36	 C69	7.623	-2.161	24.081	C.3	1	LIG1	0.000	
37	 C70	6.995	-1.617	21.755	C.3	1	LIG1	0.000	
38	 C71	7.950	0.672	23.974	C.3	1	LIG1	0.000	
39	 C72	6.776	3.463	23.254	C.3	1	LIG1	0.000	
40	 C73	6.724	5.907	22.923	C.3	1	LIG1	0.000	
41	 C74	4.941	4.954	22.640	C.3	1	LIG1	0.000	
42	 C75	8.069	-1.580	22.838	C.3	1	LIG1	0.000	
43	 C76	8.584	-0.175	22.857	C.3	1	LIG1	0.000	
44	 N77	6.157	4.681	23.459	N.3	1	LIG1	0.000	
@<TRIPOS>BOND
1 2 8 2
2 4 11 ar
3 6 23 ar
4 7 33 1
5 8 21 1
6 8 31 1
7 3 9 2
8 9 30 1
9 4 10 ar
10 5 10 ar
11 11 14 ar
12 5 12 ar
13 6 13 ar
14 12 14 ar
15 15 20 ar
16 15 16 ar
17 17 22 ar
18 18 19 ar
19 19 25 ar
20 1 20 1
21 17 20 ar
22 16 21 ar
23 21 22 ar
24 22 43 1
25 23 27 ar
26 18 24 ar
27 25 28 ar
28 13 26 ar
29 26 28 ar
30 24 27 ar
31 27 28 ar
32 10 29 1
33 26 30 1
34 30 37 1
35 31 34 1
36 7 32 1
37 34 39 1
38 32 35 1
39 33 35 1
40 35 41 1
41 29 36 1
42 37 42 1
43 31 38 1
44 39 44 1
45 35 40 1
46 40 41 1
47 36 42 1
48 9 43 1
49 38 43 1
50 42 43 1
51 40 44 1
52 41 44 1
@<TRIPOS>SUBSTRUCTURE
1	LIG1	1	GROUP	1 C	LIG
