# created with PyMOL 3.1.3.1
@<TRIPOS>MOLECULE
predicted
35 40 1                 
SMALL
USER_CHARGES
@<TRIPOS>ATOM
1	 O24	10.362	3.096	23.910	O.2	1	LIG1	0.000	
2	 O25	8.642	1.281	20.875	O.2	1	LIG1	0.000	
3	 N27	5.499	4.083	22.119	N.2	1	LIG1	0.000	
4	 N28	6.170	0.122	17.399	N.2	1	LIG1	0.000	
5	 O29	5.856	3.170	23.080	O.2	1	LIG1	0.000	
6	 C30	9.947	1.952	23.709	C.2	1	LIG1	0.000	
7	 C31	8.242	0.233	21.328	C.2	1	LIG1	0.000	
8	 C32	6.874	-0.279	18.435	C.2	1	LIG1	0.000	
9	 C33	6.458	4.985	22.034	C.2	1	LIG1	0.000	
10	 C34	7.031	3.468	23.499	C.2	1	LIG1	0.000	
11	 C35	7.473	4.616	22.887	C.2	1	LIG1	0.000	
12	 C36	12.999	0.049	22.715	C.2	1	LIG1	0.000	
13	 C37	12.194	1.060	23.172	C.2	1	LIG1	0.000	
14	 C38	11.072	-1.275	22.121	C.2	1	LIG1	0.000	
15	 C39	2.767	1.790	20.326	C.2	1	LIG1	0.000	
16	 C40	3.471	1.359	21.430	C.2	1	LIG1	0.000	
17	 C41	12.461	-1.112	22.187	C.2	1	LIG1	0.000	
18	 C42	10.819	0.905	23.165	C.2	1	LIG1	0.000	
19	 C43	10.235	-0.293	22.685	C.2	1	LIG1	0.000	
20	 C44	4.997	0.717	17.581	C.2	1	LIG1	0.000	
21	 C45	3.265	1.571	19.059	C.2	1	LIG1	0.000	
22	 C46	4.660	0.739	21.273	C.2	1	LIG1	0.000	
23	 C47	6.451	-0.099	19.751	C.2	1	LIG1	0.000	
24	 C48	4.475	0.944	18.865	C.2	1	LIG1	0.000	
25	 C49	5.200	0.531	19.986	C.2	1	LIG1	0.000	
26	 N50	7.224	-0.495	20.823	N.pl3	1	LIG1	0.000	
27	 N51	8.598	1.675	23.943	N.pl3	1	LIG1	0.000	
28	 C52	6.385	6.171	21.146	C.3	1	LIG1	0.000	
29	 C53	7.759	2.647	24.562	C.3	1	LIG1	0.000	
30	 C54	8.097	-2.607	23.693	C.3	1	LIG1	0.000	
31	 C55	7.056	-1.735	21.504	C.3	1	LIG1	0.000	
32	 C56	8.082	0.318	23.807	C.3	1	LIG1	0.000	
33	 C57	8.226	-1.808	22.466	C.3	1	LIG1	0.000	
34	 C58	8.747	-0.404	22.615	C.3	1	LIG1	0.000	
35	 F26	13.280	-2.045	21.755	 F	1	LIG1	0.000	
@<TRIPOS>BOND
1 4 20 ar
2 3 5 ar
3 1 6 2
4 2 7 2
5 7 26 1
6 4 8 ar
7 3 9 ar
8 9 11 ar
9 5 10 ar
10 10 29 1
11 10 11 ar
12 12 13 ar
13 13 18 ar
14 14 17 ar
15 15 16 ar
16 16 22 ar
17 12 17 ar
18 17 35 1
19 6 18 1
20 14 19 ar
21 18 19 ar
22 20 24 ar
23 15 21 ar
24 22 25 ar
25 8 23 ar
26 23 25 ar
27 21 24 ar
28 24 25 ar
29 23 26 1
30 26 31 1
31 6 27 1
32 27 32 1
33 9 28 1
34 27 29 1
35 31 33 1
36 32 34 1
37 30 33 1
38 7 34 1
39 19 34 1
40 33 34 1
@<TRIPOS>SUBSTRUCTURE
1	LIG1	1	GROUP	1 C	LIG
