# created with PyMOL 3.1.3.1
@<TRIPOS>MOLECULE
predicted
31 35 1                 
SMALL
USER_CHARGES
@<TRIPOS>ATOM
1	 N20	6.499	3.995	22.068	N.2	1	LIG1	0.000	
2	 O21	10.399	3.307	23.581	O.2	1	LIG1	0.000	
3	 O22	8.569	1.279	20.835	O.2	1	LIG1	0.000	
4	 C24	7.562	3.816	22.706	C.2	1	LIG1	0.000	
5	 N25	6.134	-0.047	17.465	N.2	1	LIG1	0.000	
6	 C26	9.960	2.154	23.514	C.2	1	LIG1	0.000	
7	 C27	8.215	0.251	21.374	C.2	1	LIG1	0.000	
8	 C28	6.850	-0.421	18.512	C.2	1	LIG1	0.000	
9	 C29	12.987	0.121	22.850	C.2	1	LIG1	0.000	
10	 C30	12.191	1.178	23.159	C.2	1	LIG1	0.000	
11	 C31	11.058	-1.230	22.353	C.2	1	LIG1	0.000	
12	 C32	2.812	1.823	20.383	C.2	1	LIG1	0.000	
13	 C33	3.529	1.422	21.499	C.2	1	LIG1	0.000	
14	 C34	12.448	-1.073	22.450	C.2	1	LIG1	0.000	
15	 C35	10.818	1.033	23.132	C.2	1	LIG1	0.000	
16	 C36	10.226	-0.179	22.768	C.2	1	LIG1	0.000	
17	 C37	4.966	0.578	17.640	C.2	1	LIG1	0.000	
18	 C38	3.283	1.549	19.115	C.2	1	LIG1	0.000	
19	 C39	4.704	0.761	21.341	C.2	1	LIG1	0.000	
20	 C40	6.430	-0.189	19.822	C.2	1	LIG1	0.000	
21	 C41	4.469	0.881	18.921	C.2	1	LIG1	0.000	
22	 C42	5.201	0.487	20.052	C.2	1	LIG1	0.000	
23	 N43	7.225	-0.529	20.897	N.pl3	1	LIG1	0.000	
24	 N44	8.588	1.937	23.698	N.pl3	1	LIG1	0.000	
25	 C45	7.706	3.009	23.990	C.3	1	LIG1	0.000	
26	 C46	8.027	-2.373	23.949	C.3	1	LIG1	0.000	
27	 C47	7.094	-1.730	21.660	C.3	1	LIG1	0.000	
28	 C48	8.075	0.591	23.791	C.3	1	LIG1	0.000	
29	 C49	8.193	-1.668	22.687	C.3	1	LIG1	0.000	
30	 C50	8.724	-0.279	22.698	C.3	1	LIG1	0.000	
31	 F23	13.274	-2.076	22.135	 F	1	LIG1	0.000	
@<TRIPOS>BOND
1 1 4 2
2 5 17 ar
3 2 6 2
4 6 15 1
5 3 7 2
6 7 30 1
7 5 8 ar
8 9 14 ar
9 9 10 ar
10 11 16 ar
11 12 13 ar
12 13 19 ar
13 11 14 ar
14 14 31 1
15 10 15 ar
16 15 16 ar
17 17 21 ar
18 12 18 ar
19 19 22 ar
20 8 20 ar
21 20 22 ar
22 18 21 ar
23 21 22 ar
24 7 23 1
25 20 23 1
26 6 24 1
27 24 25 1
28 4 25 1
29 26 29 1
30 23 27 1
31 24 28 1
32 27 29 1
33 29 30 1
34 16 30 1
35 28 30 1
@<TRIPOS>SUBSTRUCTURE
1	LIG1	1	GROUP	1 C	LIG
