# created with PyMOL 3.1.3.1
@<TRIPOS>MOLECULE
predicted
37 41 1                 
SMALL
USER_CHARGES
@<TRIPOS>ATOM
1	CL33	-13.241	-3.109	-21.833	Cl	1	LIG1	0.000	
2	 O30	-10.568	2.414	-24.407	O.2	1	LIG1	0.000	
3	 O31	-5.733	2.064	-24.373	O.2	1	LIG1	0.000	
4	 O32	-8.483	0.665	-21.478	O.2	1	LIG1	0.000	
5	 N34	-6.107	-0.594	-17.995	N.2	1	LIG1	0.000	
6	 O35	-7.932	-4.392	-24.483	O.3	1	LIG1	0.000	
7	 C36	-10.054	1.290	-24.243	C.2	1	LIG1	0.000	
8	 C37	-6.794	2.528	-24.152	C.2	1	LIG1	0.000	
9	 C38	-8.096	-0.399	-21.957	C.2	1	LIG1	0.000	
10	 C39	-6.789	-1.000	-19.047	C.2	1	LIG1	0.000	
11	 C40	-12.914	-0.730	-23.026	C.2	1	LIG1	0.000	
12	 C41	-12.198	0.277	-23.571	C.2	1	LIG1	0.000	
13	 C42	-10.875	-1.952	-22.553	C.2	1	LIG1	0.000	
14	 C43	-2.714	1.226	-20.900	C.2	1	LIG1	0.000	
15	 C44	-3.387	0.778	-22.019	C.2	1	LIG1	0.000	
16	 C45	-12.258	-1.851	-22.499	C.2	1	LIG1	0.000	
17	 C46	-10.822	0.191	-23.649	C.2	1	LIG1	0.000	
18	 C47	-10.155	-0.971	-23.199	C.2	1	LIG1	0.000	
19	 C48	-4.936	0.043	-18.167	C.2	1	LIG1	0.000	
20	 C49	-3.224	0.990	-19.619	C.2	1	LIG1	0.000	
21	 C50	-4.559	0.108	-21.886	C.2	1	LIG1	0.000	
22	 C51	-6.307	-0.805	-20.356	C.2	1	LIG1	0.000	
23	 C52	-4.399	0.314	-19.449	C.2	1	LIG1	0.000	
24	 C53	-5.089	-0.124	-20.606	C.2	1	LIG1	0.000	
25	 N54	-7.036	3.247	-23.042	N.pl3	1	LIG1	0.000	
26	 N55	-7.100	-1.171	-21.438	N.pl3	1	LIG1	0.000	
27	 N56	-8.701	1.126	-24.506	N.pl3	1	LIG1	0.000	
28	 C57	-5.999	3.596	-22.137	C.3	1	LIG1	0.000	
29	 C58	-7.958	2.225	-25.057	C.3	1	LIG1	0.000	
30	 C59	-8.187	-6.529	-25.432	C.3	1	LIG1	0.000	
31	 C60	-7.801	-4.539	-26.931	C.3	1	LIG1	0.000	
32	 C61	-8.368	-5.085	-25.648	C.3	1	LIG1	0.000	
33	 C62	-8.144	-3.083	-24.472	C.3	1	LIG1	0.000	
34	 C63	-6.978	-2.404	-22.175	C.3	1	LIG1	0.000	
35	 C64	-8.117	-0.210	-24.463	C.3	1	LIG1	0.000	
36	 C65	-8.085	-2.403	-23.163	C.3	1	LIG1	0.000	
37	 C66	-8.642	-1.013	-23.219	C.3	1	LIG1	0.000	
@<TRIPOS>BOND
1 5 19 ar
2 6 32 1
3 2 7 2
4 3 8 2
5 8 29 1
6 4 9 2
7 9 26 1
8 5 10 ar
9 11 12 ar
10 12 17 ar
11 13 16 ar
12 14 15 ar
13 15 21 ar
14 1 16 1
15 11 16 ar
16 7 17 1
17 13 18 ar
18 17 18 ar
19 19 23 ar
20 14 20 ar
21 21 24 ar
22 10 22 ar
23 22 24 ar
24 20 23 ar
25 23 24 ar
26 8 25 1
27 22 26 1
28 26 34 1
29 7 27 1
30 27 35 1
31 25 28 1
32 27 29 1
33 30 32 1
34 31 32 1
35 6 33 1
36 34 36 1
37 35 37 1
38 33 36 1
39 9 37 1
40 18 37 1
41 36 37 1
@<TRIPOS>SUBSTRUCTURE
1	LIG1	1	GROUP	1 C	LIG
