# created with PyMOL 3.1.3.1
@<TRIPOS>MOLECULE
predicted
25 28 1                 
SMALL
USER_CHARGES
@<TRIPOS>ATOM
1	 O20	-8.554	-0.513	-21.054	O.2	1	LIG1	0.000	
2	 N22	-6.441	-0.893	-17.320	N.2	1	LIG1	0.000	
3	 C23	-8.170	-1.609	-21.429	C.2	1	LIG1	0.000	
4	 C24	-6.961	-1.590	-18.330	C.2	1	LIG1	0.000	
5	 C25	-12.578	-1.701	-23.896	C.2	1	LIG1	0.000	
6	 C26	-13.480	-2.247	-23.070	C.2	1	LIG1	0.000	
7	 C27	-11.230	-2.023	-23.774	C.2	1	LIG1	0.000	
8	 C28	-11.755	-3.477	-22.002	C.2	1	LIG1	0.000	
9	 C29	-3.189	0.995	-20.219	C.2	1	LIG1	0.000	
10	 C30	-3.703	0.325	-21.259	C.2	1	LIG1	0.000	
11	 C31	-13.097	-3.153	-22.126	C.2	1	LIG1	0.000	
12	 C32	-10.843	-2.968	-22.822	C.2	1	LIG1	0.000	
13	 C33	-5.414	-0.139	-17.498	C.2	1	LIG1	0.000	
14	 C34	-3.737	0.868	-18.968	C.2	1	LIG1	0.000	
15	 C35	-4.785	-0.484	-21.110	C.2	1	LIG1	0.000	
16	 C36	-6.470	-1.501	-19.605	C.2	1	LIG1	0.000	
17	 C37	-4.824	0.045	-18.757	C.2	1	LIG1	0.000	
18	 C38	-5.362	-0.657	-19.846	C.2	1	LIG1	0.000	
19	 N39	-8.571	-2.251	-22.584	N.pl3	1	LIG1	0.000	
20	 C40	-7.131	-2.332	-20.673	C.3	1	LIG1	0.000	
21	 C41	-8.082	-1.971	-23.836	C.3	1	LIG1	0.000	
22	 C42	-8.275	-3.288	-24.685	C.3	1	LIG1	0.000	
23	 C43	-8.941	-4.247	-23.777	C.3	1	LIG1	0.000	
24	 C44	-9.368	-3.403	-22.626	C.3	1	LIG1	0.000	
25	 F21	-13.923	-3.673	-21.290	 F	1	LIG1	0.000	
@<TRIPOS>BOND
1 1 3 2
2 2 13 ar
3 3 19 1
4 3 20 1
5 2 4 ar
6 5 6 ar
7 6 11 ar
8 5 7 ar
9 9 10 ar
10 10 15 ar
11 8 11 ar
12 11 25 1
13 7 12 ar
14 8 12 ar
15 13 17 ar
16 9 14 ar
17 15 18 ar
18 4 16 ar
19 16 18 ar
20 14 17 ar
21 17 18 ar
22 19 21 1
23 19 24 1
24 16 20 1
25 21 22 1
26 22 23 1
27 23 24 1
28 12 24 1
@<TRIPOS>SUBSTRUCTURE
1	LIG1	1	GROUP	1 C	LIG
