# created with PyMOL 3.1.3.1
@<TRIPOS>MOLECULE
predicted
22 24 1                 
SMALL
USER_CHARGES
@<TRIPOS>ATOM
1	CL17	12.853	-2.999	24.787	Cl	1	LIG1	0.000	
2	 O16	8.561	1.048	20.538	O.2	1	LIG1	0.000	
3	 N18	6.098	0.107	17.251	N.2	1	LIG1	0.000	
4	 C19	8.242	0.070	21.167	C.2	1	LIG1	0.000	
5	 C20	6.768	-0.449	18.241	C.2	1	LIG1	0.000	
6	 C21	13.133	-0.372	21.923	C.2	1	LIG1	0.000	
7	 C22	13.423	-1.377	22.784	C.2	1	LIG1	0.000	
8	 C23	11.916	0.250	21.972	C.2	1	LIG1	0.000	
9	 C24	11.302	-1.101	23.759	C.2	1	LIG1	0.000	
10	 C25	2.962	1.971	20.303	C.2	1	LIG1	0.000	
11	 C26	3.634	1.445	21.332	C.2	1	LIG1	0.000	
12	 C27	12.510	-1.735	23.710	C.2	1	LIG1	0.000	
13	 C28	11.022	-0.098	22.906	C.2	1	LIG1	0.000	
14	 C29	5.013	0.783	17.478	C.2	1	LIG1	0.000	
15	 C30	3.393	1.769	19.030	C.2	1	LIG1	0.000	
16	 C31	4.769	0.713	21.132	C.2	1	LIG1	0.000	
17	 C32	6.398	-0.287	19.547	C.2	1	LIG1	0.000	
18	 C33	4.534	1.027	18.777	C.2	1	LIG1	0.000	
19	 C34	5.236	0.474	19.847	C.2	1	LIG1	0.000	
20	 N35	8.696	-0.182	22.374	N.pl3	1	LIG1	0.000	
21	 C36	7.231	-0.917	20.646	C.3	1	LIG1	0.000	
22	 C37	9.698	0.630	22.999	C.3	1	LIG1	0.000	
@<TRIPOS>BOND
1 2 4 2
2 3 14 ar
3 4 20 1
4 4 21 1
5 3 5 ar
6 6 7 ar
7 7 12 ar
8 6 8 ar
9 10 11 ar
10 11 16 ar
11 1 12 1
12 9 12 ar
13 8 13 ar
14 9 13 ar
15 14 18 ar
16 10 15 ar
17 16 19 ar
18 5 17 ar
19 17 19 ar
20 15 18 ar
21 18 19 ar
22 20 22 1
23 17 21 1
24 13 22 1
@<TRIPOS>SUBSTRUCTURE
1	LIG1	1	GROUP	1 C	LIG
