# created with PyMOL 3.1.3.1
@<TRIPOS>MOLECULE
predicted
34 39 1                 
SMALL
USER_CHARGES
@<TRIPOS>ATOM
1	 O22	10.241	3.265	23.679	O.2	1	LIG1	0.000	
2	 O23	8.469	1.296	20.805	O.2	1	LIG1	0.000	
3	 N25	6.993	3.684	21.928	N.2	1	LIG1	0.000	
4	 N26	6.073	0.051	17.358	N.2	1	LIG1	0.000	
5	 O27	5.056	4.530	22.340	O.2	1	LIG1	0.000	
6	 C28	9.801	2.116	23.562	C.2	1	LIG1	0.000	
7	 C29	8.080	0.259	21.311	C.2	1	LIG1	0.000	
8	 C30	5.926	4.271	21.415	C.2	1	LIG1	0.000	
9	 C31	6.766	-0.331	18.414	C.2	1	LIG1	0.000	
10	 C32	6.826	3.570	23.212	C.2	1	LIG1	0.000	
11	 C33	5.562	4.151	23.503	C.2	1	LIG1	0.000	
12	 C34	12.846	0.117	22.754	C.2	1	LIG1	0.000	
13	 C35	12.044	1.163	23.126	C.2	1	LIG1	0.000	
14	 C36	10.904	-1.233	22.245	C.2	1	LIG1	0.000	
15	 C37	2.589	1.723	20.223	C.2	1	LIG1	0.000	
16	 C38	3.272	1.308	21.342	C.2	1	LIG1	0.000	
17	 C39	12.299	-1.074	22.320	C.2	1	LIG1	0.000	
18	 C40	10.663	1.018	23.109	C.2	1	LIG1	0.000	
19	 C41	10.072	-0.197	22.703	C.2	1	LIG1	0.000	
20	 C42	4.882	0.637	17.515	C.2	1	LIG1	0.000	
21	 C43	3.118	1.499	18.962	C.2	1	LIG1	0.000	
22	 C44	4.480	0.687	21.203	C.2	1	LIG1	0.000	
23	 C45	6.297	-0.142	19.719	C.2	1	LIG1	0.000	
24	 C46	4.335	0.884	18.793	C.2	1	LIG1	0.000	
25	 C47	5.043	0.478	19.933	C.2	1	LIG1	0.000	
26	 N48	7.072	-0.497	20.811	N.pl3	1	LIG1	0.000	
27	 N49	8.439	1.876	23.785	N.pl3	1	LIG1	0.000	
28	 C50	7.592	2.910	24.297	C.3	1	LIG1	0.000	
29	 C51	7.865	-2.454	23.808	C.3	1	LIG1	0.000	
30	 C52	6.927	-1.717	21.554	C.3	1	LIG1	0.000	
31	 C53	7.908	0.506	23.767	C.3	1	LIG1	0.000	
32	 C54	8.049	-1.710	22.558	C.3	1	LIG1	0.000	
33	 C55	8.569	-0.303	22.626	C.3	1	LIG1	0.000	
34	 F24	13.129	-2.061	21.969	 F	1	LIG1	0.000	
@<TRIPOS>BOND
1 4 20 ar
2 5 8 ar
3 1 6 2
4 6 18 1
5 2 7 2
6 7 33 1
7 3 8 ar
8 4 9 ar
9 3 10 ar
10 10 11 ar
11 5 11 ar
12 12 17 ar
13 12 13 ar
14 14 19 ar
15 15 16 ar
16 16 22 ar
17 14 17 ar
18 17 34 1
19 13 18 ar
20 18 19 ar
21 20 24 ar
22 15 21 ar
23 22 25 ar
24 9 23 ar
25 23 25 ar
26 21 24 ar
27 24 25 ar
28 7 26 1
29 23 26 1
30 6 27 1
31 27 28 1
32 10 28 1
33 29 32 1
34 26 30 1
35 27 31 1
36 30 32 1
37 32 33 1
38 19 33 1
39 31 33 1
@<TRIPOS>SUBSTRUCTURE
1	LIG1	1	GROUP	1 C	LIG
