# created with PyMOL 3.1.3.1
@<TRIPOS>MOLECULE
predicted
34 39 1                 
SMALL
USER_CHARGES
@<TRIPOS>ATOM
1	 O22	-10.675	2.420	-24.409	O.2	1	LIG1	0.000	
2	 O23	-8.620	0.643	-21.508	O.2	1	LIG1	0.000	
3	 N25	-6.153	-0.504	-18.025	N.2	1	LIG1	0.000	
4	 N26	-6.324	3.696	-22.314	N.2	1	LIG1	0.000	
5	 N27	-5.830	2.897	-24.292	N.2	1	LIG1	0.000	
6	 C28	-10.172	1.283	-24.251	C.2	1	LIG1	0.000	
7	 C29	-8.228	-0.408	-21.975	C.2	1	LIG1	0.000	
8	 C30	-7.448	3.274	-22.938	C.2	1	LIG1	0.000	
9	 C31	-6.853	-0.933	-19.061	C.2	1	LIG1	0.000	
10	 C32	-7.112	2.764	-24.146	C.2	1	LIG1	0.000	
11	 C33	-13.073	-0.727	-23.009	C.2	1	LIG1	0.000	
12	 C34	-12.342	0.295	-23.557	C.2	1	LIG1	0.000	
13	 C35	-11.037	-1.990	-22.563	C.2	1	LIG1	0.000	
14	 C36	-2.790	1.256	-20.998	C.2	1	LIG1	0.000	
15	 C37	-3.475	0.788	-22.095	C.2	1	LIG1	0.000	
16	 C38	-12.432	-1.873	-22.507	C.2	1	LIG1	0.000	
17	 C39	-10.949	0.183	-23.639	C.2	1	LIG1	0.000	
18	 C40	-10.292	-0.994	-23.209	C.2	1	LIG1	0.000	
19	 C41	-4.980	0.128	-18.214	C.2	1	LIG1	0.000	
20	 C42	-3.277	1.037	-19.715	C.2	1	LIG1	0.000	
21	 C43	-4.661	0.139	-21.929	C.2	1	LIG1	0.000	
22	 C44	-6.424	-0.739	-20.388	C.2	1	LIG1	0.000	
23	 C45	-4.472	0.372	-19.515	C.2	1	LIG1	0.000	
24	 C46	-5.187	-0.074	-20.637	C.2	1	LIG1	0.000	
25	 N47	-7.210	-1.141	-21.457	N.pl3	1	LIG1	0.000	
26	 N48	-8.830	1.072	-24.546	N.pl3	1	LIG1	0.000	
27	 N49	-5.346	3.462	-23.143	N.2	1	LIG1	0.000	
28	 C50	-8.059	2.123	-25.177	C.3	1	LIG1	0.000	
29	 C51	-8.208	-3.272	-24.316	C.3	1	LIG1	0.000	
30	 C52	-7.078	-2.399	-22.146	C.3	1	LIG1	0.000	
31	 C53	-8.233	-0.273	-24.471	C.3	1	LIG1	0.000	
32	 C54	-8.219	-2.439	-23.113	C.3	1	LIG1	0.000	
33	 C55	-8.784	-1.051	-23.228	C.3	1	LIG1	0.000	
34	 F24	-13.166	-2.841	-21.973	 F	1	LIG1	0.000	
@<TRIPOS>BOND
1 3 19 ar
2 4 27 ar
3 1 6 2
4 6 17 1
5 2 7 2
6 7 33 1
7 4 8 ar
8 3 9 ar
9 5 10 ar
10 8 10 ar
11 11 16 ar
12 11 12 ar
13 13 18 ar
14 14 15 ar
15 15 21 ar
16 13 16 ar
17 16 34 1
18 12 17 ar
19 17 18 ar
20 19 23 ar
21 14 20 ar
22 21 24 ar
23 9 22 ar
24 22 24 ar
25 20 23 ar
26 23 24 ar
27 7 25 1
28 22 25 1
29 6 26 1
30 26 28 1
31 5 27 ar
32 10 28 1
33 29 32 1
34 25 30 1
35 26 31 1
36 30 32 1
37 32 33 1
38 18 33 1
39 31 33 1
@<TRIPOS>SUBSTRUCTURE
1	LIG1	1	GROUP	1 C	LIG
