# created with PyMOL 3.1.3.1
@<TRIPOS>MOLECULE
predicted
34 39 1                 
SMALL
USER_CHARGES
@<TRIPOS>ATOM
1	 O23	10.430	3.336	23.782	O.2	1	LIG1	0.000	
2	 O24	8.727	1.325	20.915	O.2	1	LIG1	0.000	
3	 N26	6.245	0.103	17.514	N.2	1	LIG1	0.000	
4	 N27	5.121	4.102	22.266	N.pl3	1	LIG1	0.000	
5	 C28	10.029	2.169	23.675	C.2	1	LIG1	0.000	
6	 C29	8.350	0.280	21.421	C.2	1	LIG1	0.000	
7	 C30	5.544	3.556	23.463	C.2	1	LIG1	0.000	
8	 C31	6.968	-0.285	18.548	C.2	1	LIG1	0.000	
9	 C32	13.122	0.271	22.798	C.2	1	LIG1	0.000	
10	 C33	12.295	1.285	23.202	C.2	1	LIG1	0.000	
11	 C34	11.216	-1.129	22.288	C.2	1	LIG1	0.000	
12	 C35	2.792	1.640	20.468	C.2	1	LIG1	0.000	
13	 C36	3.506	1.218	21.569	C.2	1	LIG1	0.000	
14	 C37	12.602	-0.933	22.347	C.2	1	LIG1	0.000	
15	 C38	10.923	1.095	23.199	C.2	1	LIG1	0.000	
16	 C39	6.904	3.465	23.380	C.2	1	LIG1	0.000	
17	 C40	10.367	-0.134	22.788	C.2	1	LIG1	0.000	
18	 C41	5.049	0.659	17.694	C.2	1	LIG1	0.000	
19	 C42	3.296	1.458	19.192	C.2	1	LIG1	0.000	
20	 C43	4.722	0.633	21.401	C.2	1	LIG1	0.000	
21	 C44	6.537	-0.121	19.866	C.2	1	LIG1	0.000	
22	 C45	7.268	4.000	22.177	C.2	1	LIG1	0.000	
23	 C46	4.528	0.870	18.995	C.2	1	LIG1	0.000	
24	 C47	5.269	0.468	20.112	C.2	1	LIG1	0.000	
25	 N48	7.340	-0.478	20.936	N.pl3	1	LIG1	0.000	
26	 N49	8.687	1.881	23.915	N.pl3	1	LIG1	0.000	
27	 N50	6.168	4.382	21.534	N.2	1	LIG1	0.000	
28	 C51	7.797	2.888	24.436	C.3	1	LIG1	0.000	
29	 C52	8.228	-2.463	23.904	C.3	1	LIG1	0.000	
30	 C53	7.224	-1.707	21.679	C.3	1	LIG1	0.000	
31	 C54	8.197	0.497	23.882	C.3	1	LIG1	0.000	
32	 C55	8.388	-1.703	22.641	C.3	1	LIG1	0.000	
33	 C56	8.870	-0.284	22.722	C.3	1	LIG1	0.000	
34	 F25	13.442	-1.880	21.966	 F	1	LIG1	0.000	
@<TRIPOS>BOND
1 3 18 ar
2 4 27 ar
3 1 5 2
4 5 15 1
5 2 6 2
6 6 33 1
7 4 7 ar
8 3 8 ar
9 9 14 ar
10 9 10 ar
11 11 17 ar
12 12 13 ar
13 13 20 ar
14 11 14 ar
15 14 34 1
16 10 15 ar
17 15 17 ar
18 7 16 ar
19 16 22 ar
20 18 23 ar
21 12 19 ar
22 20 24 ar
23 8 21 ar
24 21 24 ar
25 19 23 ar
26 23 24 ar
27 6 25 1
28 21 25 1
29 5 26 1
30 26 28 1
31 22 27 ar
32 16 28 1
33 29 32 1
34 25 30 1
35 26 31 1
36 30 32 1
37 32 33 1
38 17 33 1
39 31 33 1
@<TRIPOS>SUBSTRUCTURE
1	LIG1	1	GROUP	1 C	LIG
