# created with PyMOL 3.1.3.1
@<TRIPOS>MOLECULE
predicted
38 43 1                 
SMALL
USER_CHARGES
@<TRIPOS>ATOM
1	CL27	-13.332	-3.122	-21.758	Cl	1	LIG1	0.000	
2	 O24	-10.730	2.361	-24.545	O.2	1	LIG1	0.000	
3	 O25	-5.988	2.718	-24.528	O.2	1	LIG1	0.000	
4	 O26	-8.689	0.719	-21.525	O.2	1	LIG1	0.000	
5	 N28	-5.673	-5.893	-23.748	N.2	1	LIG1	0.000	
6	 N29	-6.252	-0.535	-17.931	N.2	1	LIG1	0.000	
7	 N30	-6.010	-4.642	-24.180	N.2	1	LIG1	0.000	
8	 N31	-7.804	-5.639	-23.392	N.2	1	LIG1	0.000	
9	 C32	-10.206	1.237	-24.337	C.2	1	LIG1	0.000	
10	 C33	-7.130	2.720	-24.280	C.2	1	LIG1	0.000	
11	 C34	-8.274	-0.354	-21.950	C.2	1	LIG1	0.000	
12	 C35	-6.767	-6.477	-23.291	C.2	1	LIG1	0.000	
13	 C36	-6.926	-0.967	-18.990	C.2	1	LIG1	0.000	
14	 C37	-13.065	-0.767	-23.056	C.2	1	LIG1	0.000	
15	 C38	-12.354	0.243	-23.627	C.2	1	LIG1	0.000	
16	 C39	-11.008	-1.984	-22.556	C.2	1	LIG1	0.000	
17	 C40	-3.022	1.599	-20.787	C.2	1	LIG1	0.000	
18	 C41	-3.690	1.171	-21.920	C.2	1	LIG1	0.000	
19	 C42	-12.394	-1.883	-22.493	C.2	1	LIG1	0.000	
20	 C43	-10.966	0.161	-23.693	C.2	1	LIG1	0.000	
21	 C44	-10.288	-0.996	-23.210	C.2	1	LIG1	0.000	
22	 C45	-5.127	0.174	-18.074	C.2	1	LIG1	0.000	
23	 C46	-3.492	1.264	-19.511	C.2	1	LIG1	0.000	
24	 C47	-4.829	0.424	-21.790	C.2	1	LIG1	0.000	
25	 C48	-6.520	-0.656	-20.299	C.2	1	LIG1	0.000	
26	 C49	-4.640	0.518	-19.352	C.2	1	LIG1	0.000	
27	 C50	-5.331	0.094	-20.513	C.2	1	LIG1	0.000	
28	 N51	-7.565	3.208	-23.101	N.pl3	1	LIG1	0.000	
29	 N52	-7.273	-1.078	-21.389	N.pl3	1	LIG1	0.000	
30	 N53	-8.860	1.044	-24.609	N.pl3	1	LIG1	0.000	
31	 N54	-7.304	-4.529	-23.922	N.2	1	LIG1	0.000	
32	 C55	-6.669	3.811	-22.167	C.3	1	LIG1	0.000	
33	 C56	-8.127	2.111	-25.238	C.3	1	LIG1	0.000	
34	 C57	-7.095	-2.326	-22.037	C.3	1	LIG1	0.000	
35	 C58	-8.088	-3.262	-24.242	C.3	1	LIG1	0.000	
36	 C59	-8.226	-0.269	-24.473	C.3	1	LIG1	0.000	
37	 C60	-8.195	-2.425	-23.081	C.3	1	LIG1	0.000	
38	 C61	-8.779	-1.035	-23.211	C.3	1	LIG1	0.000	
@<TRIPOS>BOND
1 5 7 ar
2 6 22 ar
3 8 12 ar
4 2 9 2
5 3 10 2
6 10 33 1
7 4 11 2
8 11 29 1
9 5 12 ar
10 6 13 ar
11 14 15 ar
12 15 20 ar
13 16 19 ar
14 17 18 ar
15 18 24 ar
16 1 19 1
17 14 19 ar
18 9 20 1
19 16 21 ar
20 20 21 ar
21 22 26 ar
22 17 23 ar
23 24 27 ar
24 13 25 ar
25 25 27 ar
26 23 26 ar
27 26 27 ar
28 10 28 1
29 25 29 1
30 29 34 1
31 9 30 1
32 30 36 1
33 7 31 ar
34 8 31 ar
35 28 32 1
36 30 33 1
37 34 37 1
38 31 35 1
39 36 38 1
40 35 37 1
41 11 38 1
42 21 38 1
43 37 38 1
@<TRIPOS>SUBSTRUCTURE
1	LIG1	1	GROUP	1 C	LIG
