# created with PyMOL 3.1.3.1
@<TRIPOS>MOLECULE
predicted
34 39 1                 
SMALL
USER_CHARGES
@<TRIPOS>ATOM
1	CL27	-13.385	-3.000	-21.919	Cl	1	LIG1	0.000	
2	 O24	-10.969	2.790	-24.083	O.2	1	LIG1	0.000	
3	 O25	-6.234	2.952	-23.892	O.2	1	LIG1	0.000	
4	 O26	-8.800	0.910	-21.324	O.2	1	LIG1	0.000	
5	 N28	-6.335	-0.445	-17.888	N.2	1	LIG1	0.000	
6	 C29	-10.409	1.672	-24.015	C.2	1	LIG1	0.000	
7	 C30	-7.366	3.256	-23.796	C.2	1	LIG1	0.000	
8	 C31	-8.394	-0.113	-21.832	C.2	1	LIG1	0.000	
9	 C32	-7.024	-0.828	-18.933	C.2	1	LIG1	0.000	
10	 C33	-13.182	-0.541	-23.013	C.2	1	LIG1	0.000	
11	 C34	-12.497	0.531	-23.470	C.2	1	LIG1	0.000	
12	 C35	-11.098	-1.711	-22.559	C.2	1	LIG1	0.000	
13	 C36	-3.124	1.680	-20.772	C.2	1	LIG1	0.000	
14	 C37	-3.809	1.270	-21.884	C.2	1	LIG1	0.000	
15	 C38	-12.484	-1.674	-22.535	C.2	1	LIG1	0.000	
16	 C39	-11.118	0.500	-23.524	C.2	1	LIG1	0.000	
17	 C40	-10.402	-0.657	-23.131	C.2	1	LIG1	0.000	
18	 C41	-5.192	0.241	-18.051	C.2	1	LIG1	0.000	
19	 C42	-3.565	1.343	-19.506	C.2	1	LIG1	0.000	
20	 C43	-4.952	0.558	-21.736	C.2	1	LIG1	0.000	
21	 C44	-6.634	-0.539	-20.240	C.2	1	LIG1	0.000	
22	 C45	-4.721	0.607	-19.332	C.2	1	LIG1	0.000	
23	 C46	-5.435	0.208	-20.463	C.2	1	LIG1	0.000	
24	 N47	-7.797	3.998	-22.757	N.pl3	1	LIG1	0.000	
25	 N48	-7.405	-0.893	-21.322	N.pl3	1	LIG1	0.000	
26	 N49	-9.070	1.568	-24.274	N.pl3	1	LIG1	0.000	
27	 C50	-6.877	4.537	-21.808	C.3	1	LIG1	0.000	
28	 C51	-8.368	2.738	-24.762	C.3	1	LIG1	0.000	
29	 C52	-7.266	-2.125	-22.022	C.3	1	LIG1	0.000	
30	 C53	-8.741	-3.005	-24.138	C.3	1	LIG1	0.000	
31	 C54	-7.442	-2.524	-24.348	C.3	1	LIG1	0.000	
32	 C55	-8.403	0.266	-24.298	C.3	1	LIG1	0.000	
33	 C56	-8.262	-2.049	-23.169	C.3	1	LIG1	0.000	
34	 C57	-8.904	-0.663	-23.149	C.3	1	LIG1	0.000	
@<TRIPOS>BOND
1 5 18 ar
2 2 6 2
3 3 7 2
4 7 28 1
5 4 8 2
6 8 25 1
7 5 9 ar
8 10 11 ar
9 11 16 ar
10 12 15 ar
11 13 14 ar
12 14 20 ar
13 1 15 1
14 10 15 ar
15 6 16 1
16 12 17 ar
17 16 17 ar
18 18 22 ar
19 13 19 ar
20 20 23 ar
21 9 21 ar
22 21 23 ar
23 19 22 ar
24 22 23 ar
25 7 24 1
26 21 25 1
27 25 29 1
28 6 26 1
29 26 32 1
30 24 27 1
31 26 28 1
32 29 33 1
33 30 31 1
34 32 34 1
35 30 33 1
36 31 33 1
37 8 34 1
38 17 34 1
39 33 34 1
@<TRIPOS>SUBSTRUCTURE
1	LIG1	1	GROUP	1 C	LIG
