# created with PyMOL 3.1.3.1
@<TRIPOS>MOLECULE
predicted
39 44 1                 
SMALL
USER_CHARGES
@<TRIPOS>ATOM
1	CL31	13.545	-1.992	22.015	Cl	1	LIG1	0.000	
2	 O29	10.200	3.551	23.673	O.2	1	LIG1	0.000	
3	 O30	8.544	1.497	20.869	O.2	1	LIG1	0.000	
4	 N32	4.267	-5.372	23.299	N.2	1	LIG1	0.000	
5	 N33	6.613	-5.394	22.878	N.2	1	LIG1	0.000	
6	 N34	5.597	-3.700	24.263	N.2	1	LIG1	0.000	
7	 N35	6.161	0.025	17.429	N.2	1	LIG1	0.000	
8	 C36	9.805	2.384	23.582	C.2	1	LIG1	0.000	
9	 C37	8.197	0.439	21.383	C.2	1	LIG1	0.000	
10	 C38	5.405	-5.941	22.712	C.2	1	LIG1	0.000	
11	 C39	4.418	-4.283	24.099	C.2	1	LIG1	0.000	
12	 C40	6.707	-4.273	23.662	C.2	1	LIG1	0.000	
13	 C41	6.871	-0.347	18.482	C.2	1	LIG1	0.000	
14	 C42	12.927	0.476	22.806	C.2	1	LIG1	0.000	
15	 C43	12.081	1.500	23.157	C.2	1	LIG1	0.000	
16	 C44	11.032	-0.956	22.365	C.2	1	LIG1	0.000	
17	 C45	2.854	2.029	20.306	C.2	1	LIG1	0.000	
18	 C46	3.566	1.657	21.434	C.2	1	LIG1	0.000	
19	 C47	12.412	-0.750	22.409	C.2	1	LIG1	0.000	
20	 C48	10.716	1.310	23.162	C.2	1	LIG1	0.000	
21	 C49	10.188	0.061	22.802	C.2	1	LIG1	0.000	
22	 C50	5.006	0.662	17.589	C.2	1	LIG1	0.000	
23	 C51	3.329	1.701	19.029	C.2	1	LIG1	0.000	
24	 C52	4.737	0.966	21.294	C.2	1	LIG1	0.000	
25	 C53	6.460	-0.060	19.800	C.2	1	LIG1	0.000	
26	 C54	4.513	1.011	18.866	C.2	1	LIG1	0.000	
27	 C55	5.232	0.644	20.011	C.2	1	LIG1	0.000	
28	 N56	7.975	-3.693	23.823	N.pl3	1	LIG1	0.000	
29	 N57	7.247	-0.385	20.882	N.pl3	1	LIG1	0.000	
30	 N58	8.458	2.098	23.794	N.pl3	1	LIG1	0.000	
31	 C59	7.549	3.128	24.151	C.3	1	LIG1	0.000	
32	 C60	8.137	-2.227	23.973	C.3	1	LIG1	0.000	
33	 C61	7.149	-1.589	21.641	C.3	1	LIG1	0.000	
34	 C62	7.991	0.736	23.827	C.3	1	LIG1	0.000	
35	 C63	6.101	5.557	21.694	C.3	1	LIG1	0.000	
36	 C64	7.093	3.738	22.814	C.3	1	LIG1	0.000	
37	 C65	8.220	-1.524	22.706	C.3	1	LIG1	0.000	
38	 C66	8.685	-0.105	22.718	C.3	1	LIG1	0.000	
39	 N67	6.426	4.924	22.909	N.3	1	LIG1	0.000	
@<TRIPOS>BOND
1 4 11 ar
2 5 10 ar
3 7 22 ar
4 2 8 2
5 3 9 2
6 9 29 1
7 4 10 ar
8 6 11 ar
9 5 12 ar
10 6 12 ar
11 7 13 ar
12 14 15 ar
13 15 20 ar
14 16 19 ar
15 17 18 ar
16 18 24 ar
17 1 19 1
18 14 19 ar
19 8 20 1
20 16 21 ar
21 20 21 ar
22 22 26 ar
23 17 23 ar
24 24 27 ar
25 13 25 ar
26 25 27 ar
27 23 26 ar
28 26 27 ar
29 12 28 1
30 25 29 1
31 29 33 1
32 8 30 1
33 30 34 1
34 30 31 1
35 28 32 1
36 33 37 1
37 34 38 1
38 35 39 1
39 31 36 1
40 32 37 1
41 9 38 1
42 21 38 1
43 37 38 1
44 36 39 1
@<TRIPOS>SUBSTRUCTURE
1	LIG1	1	GROUP	1 C	LIG
