# created with PyMOL 3.1.3.1
@<TRIPOS>MOLECULE
predicted
35 40 1                 
SMALL
USER_CHARGES
@<TRIPOS>ATOM
1	 O25	10.832	3.398	23.882	O.2	1	LIG1	0.000	
2	 O26	8.915	1.512	20.979	O.2	1	LIG1	0.000	
3	 N28	6.384	0.246	17.573	N.2	1	LIG1	0.000	
4	 N29	5.351	4.353	22.839	N.2	1	LIG1	0.000	
5	 C30	10.379	2.257	23.741	C.2	1	LIG1	0.000	
6	 C31	8.539	0.455	21.471	C.2	1	LIG1	0.000	
7	 C32	5.884	3.647	23.879	C.2	1	LIG1	0.000	
8	 C33	7.110	-0.136	18.605	C.2	1	LIG1	0.000	
9	 C34	13.376	0.244	22.755	C.2	1	LIG1	0.000	
10	 C35	12.601	1.286	23.192	C.2	1	LIG1	0.000	
11	 C36	11.401	-1.075	22.266	C.2	1	LIG1	0.000	
12	 C37	2.979	1.954	20.524	C.2	1	LIG1	0.000	
13	 C38	3.703	1.542	21.623	C.2	1	LIG1	0.000	
14	 C39	12.798	-0.924	22.299	C.2	1	LIG1	0.000	
15	 C40	11.214	1.159	23.217	C.2	1	LIG1	0.000	
16	 C41	7.260	3.708	23.702	C.2	1	LIG1	0.000	
17	 C42	10.599	-0.047	22.799	C.2	1	LIG1	0.000	
18	 C43	5.195	0.839	17.762	C.2	1	LIG1	0.000	
19	 C44	3.475	1.718	19.245	C.2	1	LIG1	0.000	
20	 C45	4.914	0.923	21.461	C.2	1	LIG1	0.000	
21	 C46	6.696	0.076	19.927	C.2	1	LIG1	0.000	
22	 C47	7.542	4.517	22.650	C.2	1	LIG1	0.000	
23	 C48	4.692	1.094	19.048	C.2	1	LIG1	0.000	
24	 C49	5.443	0.699	20.171	C.2	1	LIG1	0.000	
25	 N50	7.512	-0.290	20.998	N.pl3	1	LIG1	0.000	
26	 N51	9.029	2.012	24.025	N.pl3	1	LIG1	0.000	
27	 N52	6.349	4.905	22.122	N.2	1	LIG1	0.000	
28	 C53	8.254	3.037	24.682	C.3	1	LIG1	0.000	
29	 C54	6.037	5.772	21.076	C.3	1	LIG1	0.000	
30	 C55	8.449	-2.327	23.915	C.3	1	LIG1	0.000	
31	 C56	7.384	-1.520	21.724	C.3	1	LIG1	0.000	
32	 C57	8.471	0.651	23.959	C.3	1	LIG1	0.000	
33	 C58	8.556	-1.542	22.678	C.3	1	LIG1	0.000	
34	 C59	9.089	-0.140	22.764	C.3	1	LIG1	0.000	
35	 F27	13.592	-1.902	21.881	 F	1	LIG1	0.000	
@<TRIPOS>BOND
1 3 18 ar
2 4 27 ar
3 1 5 2
4 5 15 1
5 2 6 2
6 6 34 1
7 4 7 ar
8 3 8 ar
9 9 14 ar
10 9 10 ar
11 11 17 ar
12 12 13 ar
13 13 20 ar
14 11 14 ar
15 14 35 1
16 10 15 ar
17 15 17 ar
18 7 16 ar
19 16 22 ar
20 18 23 ar
21 12 19 ar
22 20 24 ar
23 8 21 ar
24 21 24 ar
25 19 23 ar
26 23 24 ar
27 6 25 1
28 21 25 1
29 5 26 1
30 26 28 1
31 22 27 ar
32 27 29 1
33 16 28 1
34 30 33 1
35 25 31 1
36 26 32 1
37 31 33 1
38 33 34 1
39 17 34 1
40 32 34 1
@<TRIPOS>SUBSTRUCTURE
1	LIG1	1	GROUP	1 C	LIG
