# created with PyMOL 3.1.3.1
@<TRIPOS>MOLECULE
predicted
35 40 1                 
SMALL
USER_CHARGES
@<TRIPOS>ATOM
1	 O24	10.697	3.421	23.824	O.2	1	LIG1	0.000	
2	 O25	8.852	1.406	20.952	O.2	1	LIG1	0.000	
3	 N27	5.922	4.055	23.475	N.2	1	LIG1	0.000	
4	 N28	6.340	0.092	17.572	N.2	1	LIG1	0.000	
5	 O29	6.520	4.575	21.427	O.2	1	LIG1	0.000	
6	 C30	10.248	2.265	23.716	C.2	1	LIG1	0.000	
7	 C31	8.456	0.381	21.479	C.2	1	LIG1	0.000	
8	 C32	5.522	4.575	22.307	C.2	1	LIG1	0.000	
9	 C33	7.066	-0.255	18.624	C.2	1	LIG1	0.000	
10	 C34	7.207	3.697	23.355	C.2	1	LIG1	0.000	
11	 C35	7.619	4.057	22.089	C.2	1	LIG1	0.000	
12	 C36	13.277	0.228	22.831	C.2	1	LIG1	0.000	
13	 C37	12.488	1.285	23.222	C.2	1	LIG1	0.000	
14	 C38	11.314	-1.108	22.354	C.2	1	LIG1	0.000	
15	 C39	2.845	1.734	20.464	C.2	1	LIG1	0.000	
16	 C40	3.583	1.367	21.588	C.2	1	LIG1	0.000	
17	 C41	12.713	-0.958	22.394	C.2	1	LIG1	0.000	
18	 C42	11.100	1.156	23.239	C.2	1	LIG1	0.000	
19	 C43	10.491	-0.074	22.847	C.2	1	LIG1	0.000	
20	 C44	5.130	0.652	17.739	C.2	1	LIG1	0.000	
21	 C45	3.359	1.493	19.194	C.2	1	LIG1	0.000	
22	 C46	4.811	0.787	21.450	C.2	1	LIG1	0.000	
23	 C47	6.630	-0.046	19.939	C.2	1	LIG1	0.000	
24	 C48	4.602	0.907	19.024	C.2	1	LIG1	0.000	
25	 C49	5.349	0.552	20.163	C.2	1	LIG1	0.000	
26	 N50	7.433	-0.381	21.023	N.pl3	1	LIG1	0.000	
27	 N51	8.876	2.037	23.960	N.pl3	1	LIG1	0.000	
28	 C52	4.160	5.091	21.979	C.3	1	LIG1	0.000	
29	 C53	8.047	3.082	24.481	C.3	1	LIG1	0.000	
30	 C54	8.308	-2.304	24.027	C.3	1	LIG1	0.000	
31	 C55	7.294	-1.586	21.772	C.3	1	LIG1	0.000	
32	 C56	8.352	0.665	23.949	C.3	1	LIG1	0.000	
33	 C57	8.451	-1.578	22.759	C.3	1	LIG1	0.000	
34	 C58	8.988	-0.168	22.803	C.3	1	LIG1	0.000	
35	 F26	13.523	-1.944	22.023	 F	1	LIG1	0.000	
@<TRIPOS>BOND
1 3 10 ar
2 4 20 ar
3 1 6 2
4 2 7 2
5 7 26 1
6 3 8 ar
7 5 8 ar
8 4 9 ar
9 10 11 ar
10 10 29 1
11 5 11 ar
12 12 13 ar
13 13 18 ar
14 14 17 ar
15 15 16 ar
16 16 22 ar
17 12 17 ar
18 17 35 1
19 6 18 1
20 14 19 ar
21 18 19 ar
22 20 24 ar
23 15 21 ar
24 22 25 ar
25 9 23 ar
26 23 25 ar
27 21 24 ar
28 24 25 ar
29 23 26 1
30 26 31 1
31 6 27 1
32 27 32 1
33 8 28 1
34 27 29 1
35 31 33 1
36 32 34 1
37 30 33 1
38 7 34 1
39 19 34 1
40 33 34 1
@<TRIPOS>SUBSTRUCTURE
1	LIG1	1	GROUP	1 C	LIG
