# created with PyMOL 3.1.3.1
@<TRIPOS>MOLECULE
predicted
40 45 1                 
SMALL
USER_CHARGES
@<TRIPOS>ATOM
1	CL32	-13.323	-3.191	-21.853	Cl	1	LIG1	0.000	
2	 O29	-10.821	2.387	-24.485	O.2	1	LIG1	0.000	
3	 O30	-5.992	2.366	-24.394	O.2	1	LIG1	0.000	
4	 O31	-8.701	0.768	-21.500	O.2	1	LIG1	0.000	
5	 N33	-6.262	-0.488	-17.914	N.2	1	LIG1	0.000	
6	 N34	-8.763	-6.557	-26.848	N.2	1	LIG1	0.000	
7	 C35	-10.270	1.284	-24.295	C.2	1	LIG1	0.000	
8	 C36	-7.114	2.701	-24.210	C.2	1	LIG1	0.000	
9	 C37	-8.287	-0.295	-21.939	C.2	1	LIG1	0.000	
10	 C38	-8.835	-6.049	-25.624	C.2	1	LIG1	0.000	
11	 C39	-6.950	-0.924	-18.971	C.2	1	LIG1	0.000	
12	 C40	-13.078	-0.817	-23.066	C.2	1	LIG1	0.000	
13	 C41	-12.389	0.214	-23.614	C.2	1	LIG1	0.000	
14	 C42	-10.996	-1.969	-22.566	C.2	1	LIG1	0.000	
15	 C43	-2.967	1.461	-20.847	C.2	1	LIG1	0.000	
16	 C44	-3.654	1.014	-21.959	C.2	1	LIG1	0.000	
17	 C45	-12.383	-1.909	-22.527	C.2	1	LIG1	0.000	
18	 C46	-11.001	0.171	-23.683	C.2	1	LIG1	0.000	
19	 C47	-7.842	-5.125	-25.486	C.2	1	LIG1	0.000	
20	 C48	-10.306	-0.962	-23.210	C.2	1	LIG1	0.000	
21	 C49	-5.116	0.181	-18.101	C.2	1	LIG1	0.000	
22	 C50	-3.449	1.184	-19.565	C.2	1	LIG1	0.000	
23	 C51	-4.812	0.327	-21.800	C.2	1	LIG1	0.000	
24	 C52	-6.535	-0.645	-20.286	C.2	1	LIG1	0.000	
25	 C53	-7.110	-5.100	-26.653	C.2	1	LIG1	0.000	
26	 C54	-4.614	0.483	-19.385	C.2	1	LIG1	0.000	
27	 C55	-5.310	0.056	-20.523	C.2	1	LIG1	0.000	
28	 N56	-7.471	3.406	-23.129	N.pl3	1	LIG1	0.000	
29	 N57	-7.623	-4.353	-24.313	N.pl3	1	LIG1	0.000	
30	 N58	-7.298	-1.046	-21.375	N.pl3	1	LIG1	0.000	
31	 N59	-8.924	1.144	-24.546	N.pl3	1	LIG1	0.000	
32	 N60	-7.722	-5.972	-27.451	N.2	1	LIG1	0.000	
33	 C61	-6.502	3.890	-22.198	C.3	1	LIG1	0.000	
34	 C62	-8.202	2.241	-25.140	C.3	1	LIG1	0.000	
35	 C63	-7.413	-6.311	-28.815	C.3	1	LIG1	0.000	
36	 C64	-8.200	-3.053	-24.320	C.3	1	LIG1	0.000	
37	 C65	-7.134	-2.287	-22.045	C.3	1	LIG1	0.000	
38	 C66	-8.282	-0.145	-24.445	C.3	1	LIG1	0.000	
39	 C67	-8.190	-2.323	-23.093	C.3	1	LIG1	0.000	
40	 C68	-8.799	-0.961	-23.202	C.3	1	LIG1	0.000	
@<TRIPOS>BOND
1 5 21 ar
2 6 32 ar
3 2 7 2
4 3 8 2
5 8 34 1
6 4 9 2
7 9 30 1
8 6 10 ar
9 5 11 ar
10 12 13 ar
11 13 18 ar
12 14 17 ar
13 15 16 ar
14 16 23 ar
15 1 17 1
16 12 17 ar
17 7 18 1
18 10 19 ar
19 19 25 ar
20 14 20 ar
21 18 20 ar
22 21 26 ar
23 15 22 ar
24 23 27 ar
25 11 24 ar
26 24 27 ar
27 22 26 ar
28 26 27 ar
29 8 28 1
30 19 29 1
31 24 30 1
32 30 37 1
33 7 31 1
34 31 38 1
35 25 32 ar
36 32 35 1
37 28 33 1
38 31 34 1
39 29 36 1
40 37 39 1
41 38 40 1
42 36 39 1
43 9 40 1
44 20 40 1
45 39 40 1
@<TRIPOS>SUBSTRUCTURE
1	LIG1	1	GROUP	1 C	LIG
