# created with PyMOL 3.1.3.1
@<TRIPOS>MOLECULE
predicted
30 33 1                 
SMALL
USER_CHARGES
@<TRIPOS>ATOM
1	CL21	13.436	-1.695	20.667	Cl	1	LIG1	0.000	
2	 N19	6.865	-4.488	26.962	N.1	1	LIG1	0.000	
3	 O20	8.503	1.347	20.627	O.2	1	LIG1	0.000	
4	 C22	7.142	-3.693	26.187	C.1	1	LIG1	0.000	
5	 N23	6.162	0.303	17.239	N.2	1	LIG1	0.000	
6	 C24	8.109	0.382	21.282	C.2	1	LIG1	0.000	
7	 C25	6.764	-0.206	18.316	C.2	1	LIG1	0.000	
8	 C26	12.745	-0.647	24.459	C.2	1	LIG1	0.000	
9	 C27	13.335	-1.187	23.310	C.2	1	LIG1	0.000	
10	 C28	8.426	-3.058	24.244	C.2	1	LIG1	0.000	
11	 C29	6.943	-1.438	25.293	C.2	1	LIG1	0.000	
12	 C30	8.801	-2.103	23.346	C.2	1	LIG1	0.000	
13	 C31	7.334	-0.498	24.384	C.2	1	LIG1	0.000	
14	 C32	11.552	0.057	24.324	C.2	1	LIG1	0.000	
15	 C33	11.530	-0.345	21.954	C.2	1	LIG1	0.000	
16	 C34	2.911	2.366	19.980	C.2	1	LIG1	0.000	
17	 C35	3.519	1.880	21.109	C.2	1	LIG1	0.000	
18	 C36	12.722	-1.037	22.077	C.2	1	LIG1	0.000	
19	 C37	7.503	-2.743	25.243	C.2	1	LIG1	0.000	
20	 C38	8.256	-0.839	23.422	C.2	1	LIG1	0.000	
21	 C39	11.006	0.240	23.076	C.2	1	LIG1	0.000	
22	 C40	5.092	0.996	17.353	C.2	1	LIG1	0.000	
23	 C41	3.417	2.086	18.734	C.2	1	LIG1	0.000	
24	 C42	4.648	1.111	21.039	C.2	1	LIG1	0.000	
25	 C43	6.338	0.014	19.608	C.2	1	LIG1	0.000	
26	 C44	4.548	1.303	18.608	C.2	1	LIG1	0.000	
27	 C45	5.181	0.804	19.769	C.2	1	LIG1	0.000	
28	 N46	8.633	0.169	22.514	N.pl3	1	LIG1	0.000	
29	 C47	7.081	-0.559	20.782	C.3	1	LIG1	0.000	
30	 C48	9.728	1.030	22.978	C.3	1	LIG1	0.000	
@<TRIPOS>BOND
1 2 4 3
2 4 19 1
3 5 22 ar
4 3 6 2
5 6 29 1
6 5 7 ar
7 8 9 ar
8 9 18 ar
9 10 12 ar
10 12 20 ar
11 11 13 ar
12 8 14 ar
13 16 17 ar
14 17 24 ar
15 1 18 1
16 15 18 ar
17 10 19 ar
18 11 19 ar
19 13 20 ar
20 20 28 1
21 14 21 ar
22 15 21 ar
23 22 26 ar
24 16 23 ar
25 24 27 ar
26 7 25 ar
27 25 27 ar
28 23 26 ar
29 26 27 ar
30 6 28 1
31 28 30 1
32 25 29 1
33 21 30 1
@<TRIPOS>SUBSTRUCTURE
1	LIG1	1	GROUP	1 C	LIG
