# created with PyMOL 3.1.3.1
@<TRIPOS>MOLECULE
predicted
38 43 1                 
SMALL
USER_CHARGES
@<TRIPOS>ATOM
1	CL37	-13.715	-3.529	-22.144	Cl	1	LIG1	0.000	
2	 O35	-10.655	2.166	-23.952	O.2	1	LIG1	0.000	
3	 O36	-8.921	0.222	-21.105	O.2	1	LIG1	0.000	
4	 N38	-6.525	-1.012	-17.613	N.2	1	LIG1	0.000	
5	 O39	-5.878	6.432	-23.697	O.3	1	LIG1	0.000	
6	 C40	-10.208	1.021	-23.839	C.2	1	LIG1	0.000	
7	 C41	-8.518	-0.824	-21.578	C.2	1	LIG1	0.000	
8	 C42	-7.213	-1.432	-18.653	C.2	1	LIG1	0.000	
9	 C43	-13.218	-1.041	-23.057	C.2	1	LIG1	0.000	
10	 C44	-12.433	0.023	-23.415	C.2	1	LIG1	0.000	
11	 C45	-11.275	-2.342	-22.528	C.2	1	LIG1	0.000	
12	 C46	-3.211	0.868	-20.568	C.2	1	LIG1	0.000	
13	 C47	-3.916	0.446	-21.677	C.2	1	LIG1	0.000	
14	 C48	-12.659	-2.216	-22.606	C.2	1	LIG1	0.000	
15	 C49	-11.068	-0.100	-23.397	C.2	1	LIG1	0.000	
16	 C50	-10.468	-1.310	-22.989	C.2	1	LIG1	0.000	
17	 C51	-5.361	-0.375	-17.792	C.2	1	LIG1	0.000	
18	 C52	-3.681	0.599	-19.291	C.2	1	LIG1	0.000	
19	 C53	-5.080	-0.227	-21.510	C.2	1	LIG1	0.000	
20	 C54	-6.793	-1.196	-19.968	C.2	1	LIG1	0.000	
21	 C55	-4.860	-0.084	-19.091	C.2	1	LIG1	0.000	
22	 C56	-5.572	-0.500	-20.213	C.2	1	LIG1	0.000	
23	 N57	-7.549	-1.587	-21.050	N.pl3	1	LIG1	0.000	
24	 N58	-8.841	0.792	-24.049	N.pl3	1	LIG1	0.000	
25	 C59	-7.984	1.863	-24.450	C.3	1	LIG1	0.000	
26	 C60	-8.159	-3.519	-24.057	C.3	1	LIG1	0.000	
27	 C61	-7.395	-2.811	-21.749	C.3	1	LIG1	0.000	
28	 C62	-5.247	3.548	-25.319	C.3	1	LIG1	0.000	
29	 C63	-5.129	4.095	-21.727	C.3	1	LIG1	0.000	
30	 C64	-6.513	5.733	-24.861	C.3	1	LIG1	0.000	
31	 C65	-6.612	5.983	-22.425	C.3	1	LIG1	0.000	
32	 C66	-8.325	-0.532	-24.031	C.3	1	LIG1	0.000	
33	 C67	-7.338	2.499	-23.280	C.3	1	LIG1	0.000	
34	 C68	-8.449	-2.784	-22.836	C.3	1	LIG1	0.000	
35	 C69	-6.412	4.226	-24.761	C.3	1	LIG1	0.000	
36	 C70	-6.436	4.514	-22.258	C.3	1	LIG1	0.000	
37	 C71	-8.975	-1.385	-22.892	C.3	1	LIG1	0.000	
38	 N72	-6.898	3.841	-23.464	N.3	1	LIG1	0.000	
@<TRIPOS>BOND
1 4 17 ar
2 5 31 1
3 2 6 2
4 3 7 2
5 7 23 1
6 4 8 ar
7 9 10 ar
8 10 15 ar
9 11 14 ar
10 12 13 ar
11 13 19 ar
12 1 14 1
13 9 14 ar
14 6 15 1
15 11 16 ar
16 15 16 ar
17 17 21 ar
18 12 18 ar
19 19 22 ar
20 8 20 ar
21 20 22 ar
22 18 21 ar
23 21 22 ar
24 20 23 1
25 23 27 1
26 6 24 1
27 24 32 1
28 24 25 1
29 27 34 1
30 28 35 1
31 5 30 1
32 31 36 1
33 32 37 1
34 25 33 1
35 26 34 1
36 30 35 1
37 35 38 1
38 29 36 1
39 36 38 1
40 7 37 1
41 16 37 1
42 34 37 1
43 33 38 1
@<TRIPOS>SUBSTRUCTURE
1	LIG1	1	GROUP	1 C	LIG
