# created with PyMOL 3.1.3.1
@<TRIPOS>MOLECULE
predicted
40 45 1                 
SMALL
USER_CHARGES
@<TRIPOS>ATOM
1	CL30	-13.049	-3.312	-21.937	Cl	1	LIG1	0.000	
2	 O27	-10.621	2.349	-24.376	O.2	1	LIG1	0.000	
3	 O28	-5.735	2.173	-24.396	O.2	1	LIG1	0.000	
4	 O29	-8.486	0.617	-21.470	O.2	1	LIG1	0.000	
5	 N31	-7.046	-6.054	-27.855	N.2	1	LIG1	0.000	
6	 N32	-8.654	-5.735	-25.675	N.2	1	LIG1	0.000	
7	 N33	-6.107	-0.704	-17.973	N.2	1	LIG1	0.000	
8	 C34	-10.060	1.247	-24.231	C.2	1	LIG1	0.000	
9	 C35	-6.826	2.579	-24.135	C.2	1	LIG1	0.000	
10	 C36	-8.059	-0.401	-21.965	C.2	1	LIG1	0.000	
11	 C37	-8.113	-6.839	-27.678	C.2	1	LIG1	0.000	
12	 C38	-8.937	-6.646	-26.564	C.2	1	LIG1	0.000	
13	 C39	-6.772	-5.085	-26.968	C.2	1	LIG1	0.000	
14	 C40	-6.774	-1.105	-19.048	C.2	1	LIG1	0.000	
15	 C41	-7.618	-4.882	-25.869	C.2	1	LIG1	0.000	
16	 C42	-12.860	-0.911	-23.056	C.2	1	LIG1	0.000	
17	 C43	-12.173	0.142	-23.582	C.2	1	LIG1	0.000	
18	 C44	-10.767	-2.067	-22.616	C.2	1	LIG1	0.000	
19	 C45	-2.760	1.330	-20.788	C.2	1	LIG1	0.000	
20	 C46	-3.413	0.908	-21.933	C.2	1	LIG1	0.000	
21	 C47	-12.159	-2.022	-22.570	C.2	1	LIG1	0.000	
22	 C48	-10.790	0.115	-23.662	C.2	1	LIG1	0.000	
23	 C49	-10.085	-1.028	-23.238	C.2	1	LIG1	0.000	
24	 C50	-4.962	-0.034	-18.119	C.2	1	LIG1	0.000	
25	 C51	-3.268	1.023	-19.520	C.2	1	LIG1	0.000	
26	 C52	-4.570	0.203	-21.821	C.2	1	LIG1	0.000	
27	 C53	-6.311	-0.827	-20.355	C.2	1	LIG1	0.000	
28	 C54	-4.430	0.306	-19.389	C.2	1	LIG1	0.000	
29	 C55	-5.097	-0.102	-20.550	C.2	1	LIG1	0.000	
30	 N56	-7.095	3.253	-23.000	N.pl3	1	LIG1	0.000	
31	 N57	-7.341	-3.886	-25.031	N.pl3	1	LIG1	0.000	
32	 N58	-7.061	-1.179	-21.446	N.pl3	1	LIG1	0.000	
33	 N59	-8.711	1.127	-24.492	N.pl3	1	LIG1	0.000	
34	 C60	-6.066	3.632	-22.097	C.3	1	LIG1	0.000	
35	 C61	-7.991	2.254	-25.019	C.3	1	LIG1	0.000	
36	 C62	-8.303	-3.244	-24.220	C.3	1	LIG1	0.000	
37	 C63	-6.908	-2.413	-22.163	C.3	1	LIG1	0.000	
38	 C64	-8.074	-0.169	-24.460	C.3	1	LIG1	0.000	
39	 C65	-7.913	-2.370	-23.238	C.3	1	LIG1	0.000	
40	 C66	-8.578	-1.026	-23.246	C.3	1	LIG1	0.000	
@<TRIPOS>BOND
1 5 11 ar
2 7 24 ar
3 2 8 2
4 3 9 2
5 9 35 1
6 4 10 2
7 10 32 1
8 11 12 ar
9 6 12 ar
10 5 13 ar
11 7 14 ar
12 6 15 ar
13 13 15 ar
14 16 17 ar
15 17 22 ar
16 18 21 ar
17 19 20 ar
18 20 26 ar
19 1 21 1
20 16 21 ar
21 8 22 1
22 18 23 ar
23 22 23 ar
24 24 28 ar
25 19 25 ar
26 26 29 ar
27 14 27 ar
28 27 29 ar
29 25 28 ar
30 28 29 ar
31 9 30 1
32 15 31 1
33 27 32 1
34 32 37 1
35 8 33 1
36 33 38 1
37 30 34 1
38 33 35 1
39 31 36 1
40 37 39 1
41 38 40 1
42 36 39 1
43 10 40 1
44 23 40 1
45 39 40 1
@<TRIPOS>SUBSTRUCTURE
1	LIG1	1	GROUP	1 C	LIG
