# created with PyMOL 3.1.3.1
@<TRIPOS>MOLECULE
predicted
41 47 1                 
SMALL
USER_CHARGES
@<TRIPOS>ATOM
1	CL25	13.467	-1.967	22.053	Cl	1	LIG1	0.000	
2	 O23	10.370	3.505	24.145	O.2	1	LIG1	0.000	
3	 O24	8.635	1.604	21.167	O.2	1	LIG1	0.000	
4	 N26	4.455	-5.411	22.880	N.2	1	LIG1	0.000	
5	 N27	6.804	-5.188	22.695	N.2	1	LIG1	0.000	
6	 N28	5.539	-3.821	24.200	N.2	1	LIG1	0.000	
7	 N29	6.423	5.232	22.129	N.2	1	LIG1	0.000	
8	 N30	7.297	5.028	23.147	N.2	1	LIG1	0.000	
9	 N31	6.327	0.206	17.640	N.2	1	LIG1	0.000	
10	 O32	6.007	3.322	23.029	O.2	1	LIG1	0.000	
11	 C33	9.942	2.371	23.996	C.2	1	LIG1	0.000	
12	 C34	8.253	0.552	21.650	C.2	1	LIG1	0.000	
13	 C35	5.662	-5.789	22.337	C.2	1	LIG1	0.000	
14	 C36	4.435	-4.446	23.841	C.2	1	LIG1	0.000	
15	 C37	6.749	-4.206	23.645	C.2	1	LIG1	0.000	
16	 C38	5.648	4.198	22.062	C.2	1	LIG1	0.000	
17	 C39	7.000	3.835	23.673	C.2	1	LIG1	0.000	
18	 C40	7.017	-0.167	18.720	C.2	1	LIG1	0.000	
19	 C41	12.981	0.433	23.052	C.2	1	LIG1	0.000	
20	 C42	12.173	1.454	23.476	C.2	1	LIG1	0.000	
21	 C43	11.034	-0.921	22.537	C.2	1	LIG1	0.000	
22	 C44	2.826	1.950	20.424	C.2	1	LIG1	0.000	
23	 C45	3.504	1.569	21.572	C.2	1	LIG1	0.000	
24	 C46	12.427	-0.748	22.577	C.2	1	LIG1	0.000	
25	 C47	10.799	1.295	23.484	C.2	1	LIG1	0.000	
26	 C48	10.225	0.088	23.053	C.2	1	LIG1	0.000	
27	 C49	5.144	0.795	17.787	C.2	1	LIG1	0.000	
28	 C50	3.377	1.692	19.174	C.2	1	LIG1	0.000	
29	 C51	4.712	0.953	21.468	C.2	1	LIG1	0.000	
30	 C52	6.556	0.092	20.013	C.2	1	LIG1	0.000	
31	 C53	4.592	1.076	19.048	C.2	1	LIG1	0.000	
32	 C54	5.283	0.711	20.203	C.2	1	LIG1	0.000	
33	 N55	7.938	-3.593	23.998	N.pl3	1	LIG1	0.000	
34	 N56	7.305	-0.247	21.115	N.pl3	1	LIG1	0.000	
35	 N57	8.589	2.119	24.226	N.pl3	1	LIG1	0.000	
36	 C58	7.762	3.157	24.793	C.3	1	LIG1	0.000	
37	 C59	8.070	-2.148	24.167	C.3	1	LIG1	0.000	
38	 C60	7.189	-1.463	21.823	C.3	1	LIG1	0.000	
39	 C61	8.053	0.769	24.139	C.3	1	LIG1	0.000	
40	 C62	8.236	-1.446	22.905	C.3	1	LIG1	0.000	
41	 C63	8.722	-0.040	22.977	C.3	1	LIG1	0.000	
@<TRIPOS>BOND
1 2 11 2
2 4 14 ar
3 5 13 ar
4 7 16 ar
5 7 8 ar
6 9 27 ar
7 11 25 1
8 11 35 1
9 3 12 2
10 12 34 1
11 4 13 ar
12 6 14 ar
13 5 15 ar
14 6 15 ar
15 10 16 ar
16 8 17 ar
17 10 17 ar
18 9 18 ar
19 19 24 ar
20 19 20 ar
21 21 26 ar
22 22 23 ar
23 23 29 ar
24 1 24 1
25 21 24 ar
26 20 25 ar
27 25 26 ar
28 26 41 1
29 27 31 ar
30 22 28 ar
31 29 32 ar
32 18 30 ar
33 30 32 ar
34 28 31 ar
35 31 32 ar
36 15 33 1
37 30 34 1
38 34 38 1
39 35 36 1
40 17 36 1
41 33 37 1
42 38 40 1
43 35 39 1
44 37 40 1
45 12 41 1
46 39 41 1
47 40 41 1
@<TRIPOS>SUBSTRUCTURE
1	LIG1	1	GROUP	1 C	LIG
