# created with PyMOL 3.1.3.1
@<TRIPOS>MOLECULE
predicted
38 43 1                 
SMALL
USER_CHARGES
@<TRIPOS>ATOM
1	 O29	-11.341	1.475	-23.529	O.2	1	LIG1	0.000	
2	 O30	-8.785	2.950	-25.103	O.2	1	LIG1	0.000	
3	 O31	-9.234	-0.222	-20.924	O.2	1	LIG1	0.000	
4	 N32	-6.574	-1.077	-17.567	N.2	1	LIG1	0.000	
5	 N33	-6.049	6.914	-23.007	N.2	1	LIG1	0.000	
6	 C34	-10.719	0.421	-23.509	C.2	1	LIG1	0.000	
7	 C35	-8.746	2.760	-23.906	C.2	1	LIG1	0.000	
8	 C36	-8.717	-1.188	-21.446	C.2	1	LIG1	0.000	
9	 C37	-5.826	6.144	-21.986	C.2	1	LIG1	0.000	
10	 C38	-7.247	-1.539	-18.603	C.2	1	LIG1	0.000	
11	 C39	-13.415	-2.128	-23.125	C.2	1	LIG1	0.000	
12	 C40	-12.717	-3.212	-22.704	C.2	1	LIG1	0.000	
13	 C41	-12.775	-0.937	-23.385	C.2	1	LIG1	0.000	
14	 C42	-11.299	-3.121	-22.517	C.2	1	LIG1	0.000	
15	 C43	-3.407	0.954	-20.531	C.2	1	LIG1	0.000	
16	 C44	-4.089	0.480	-21.629	C.2	1	LIG1	0.000	
17	 C45	-6.900	5.282	-21.872	C.2	1	LIG1	0.000	
18	 C46	-11.409	-0.837	-23.275	C.2	1	LIG1	0.000	
19	 C47	-10.632	-1.931	-22.881	C.2	1	LIG1	0.000	
20	 C48	-5.458	-0.377	-17.776	C.2	1	LIG1	0.000	
21	 C49	-3.854	0.677	-19.261	C.2	1	LIG1	0.000	
22	 C50	-5.217	-0.263	-21.468	C.2	1	LIG1	0.000	
23	 C51	-6.854	-1.320	-19.911	C.2	1	LIG1	0.000	
24	 C52	-7.819	5.633	-22.865	C.2	1	LIG1	0.000	
25	 C53	-4.991	-0.073	-19.067	C.2	1	LIG1	0.000	
26	 C54	-5.692	-0.550	-20.172	C.2	1	LIG1	0.000	
27	 N55	-9.053	3.624	-22.921	N.pl3	1	LIG1	0.000	
28	 N56	-7.609	-1.776	-20.981	N.pl3	1	LIG1	0.000	
29	 N57	-9.283	0.419	-23.584	N.pl3	1	LIG1	0.000	
30	 N58	-7.301	6.590	-23.529	N.2	1	LIG1	0.000	
31	 C59	-8.414	1.468	-23.360	C.3	1	LIG1	0.000	
32	 C60	-9.141	5.009	-23.144	C.3	1	LIG1	0.000	
33	 C61	-7.850	7.257	-24.650	C.3	1	LIG1	0.000	
34	 C62	-8.153	-3.704	-24.066	C.3	1	LIG1	0.000	
35	 C63	-7.317	-2.955	-21.751	C.3	1	LIG1	0.000	
36	 C64	-8.626	-0.800	-23.843	C.3	1	LIG1	0.000	
37	 C65	-8.402	-3.066	-22.770	C.3	1	LIG1	0.000	
38	 C66	-9.142	-1.774	-22.756	C.3	1	LIG1	0.000	
@<TRIPOS>BOND
1 4 20 ar
2 5 30 ar
3 1 6 2
4 6 18 1
5 2 7 2
6 7 27 1
7 3 8 2
8 8 38 1
9 5 9 ar
10 4 10 ar
11 11 12 ar
12 12 14 ar
13 11 13 ar
14 14 19 ar
15 15 16 ar
16 16 22 ar
17 9 17 ar
18 13 18 ar
19 18 19 ar
20 20 25 ar
21 15 21 ar
22 22 26 ar
23 10 23 ar
24 23 26 ar
25 17 24 ar
26 24 30 ar
27 21 25 ar
28 25 26 ar
29 27 32 1
30 8 28 1
31 23 28 1
32 6 29 1
33 29 31 1
34 30 33 1
35 7 31 1
36 24 32 1
37 34 37 1
38 28 35 1
39 29 36 1
40 35 37 1
41 37 38 1
42 19 38 1
43 36 38 1
@<TRIPOS>SUBSTRUCTURE
1	LIG1	1	GROUP	1 C	LIG
