# created with PyMOL 3.1.3.1
@<TRIPOS>MOLECULE
predicted
40 45 1                 
SMALL
USER_CHARGES
@<TRIPOS>ATOM
1	CL37	13.322	-1.862	21.951	Cl	1	LIG1	0.000	
2	 O33	10.211	3.790	23.566	O.2	1	LIG1	0.000	
3	 O34	8.505	1.741	20.777	O.2	1	LIG1	0.000	
4	 O35	5.694	-4.733	20.269	O.2	1	LIG1	0.000	
5	 O36	4.899	-6.862	21.186	O.2	1	LIG1	0.000	
6	 N38	6.069	0.147	17.343	N.2	1	LIG1	0.000	
7	 O39	7.282	-3.139	23.554	O.3	1	LIG1	0.000	
8	 C40	9.779	2.643	23.492	C.2	1	LIG1	0.000	
9	 C41	8.111	0.705	21.301	C.2	1	LIG1	0.000	
10	 C42	6.787	-0.173	18.416	C.2	1	LIG1	0.000	
11	 C43	12.802	0.629	22.764	C.2	1	LIG1	0.000	
12	 C44	11.998	1.686	23.082	C.2	1	LIG1	0.000	
13	 C45	10.877	-0.737	22.318	C.2	1	LIG1	0.000	
14	 C46	2.669	2.053	20.157	C.2	1	LIG1	0.000	
15	 C47	3.388	1.738	21.291	C.2	1	LIG1	0.000	
16	 C48	12.255	-0.573	22.366	C.2	1	LIG1	0.000	
17	 C49	10.645	1.538	23.090	C.2	1	LIG1	0.000	
18	 C50	10.075	0.303	22.742	C.2	1	LIG1	0.000	
19	 C51	4.885	0.742	17.479	C.2	1	LIG1	0.000	
20	 C52	3.165	1.723	18.901	C.2	1	LIG1	0.000	
21	 C53	4.597	1.108	21.186	C.2	1	LIG1	0.000	
22	 C54	6.375	0.170	19.712	C.2	1	LIG1	0.000	
23	 C55	4.373	1.098	18.754	C.2	1	LIG1	0.000	
24	 C56	5.104	0.787	19.915	C.2	1	LIG1	0.000	
25	 N57	7.157	-0.108	20.807	N.pl3	1	LIG1	0.000	
26	 N58	8.430	2.417	23.704	N.pl3	1	LIG1	0.000	
27	 C59	7.050	-4.135	24.376	C.3	1	LIG1	0.000	
28	 C60	7.564	3.487	24.049	C.3	1	LIG1	0.000	
29	 C61	6.302	-5.248	23.652	C.3	1	LIG1	0.000	
30	 C62	7.913	-1.952	23.857	C.3	1	LIG1	0.000	
31	 C63	7.041	-1.272	21.581	C.3	1	LIG1	0.000	
32	 C64	7.911	1.079	23.745	C.3	1	LIG1	0.000	
33	 C65	5.281	5.284	21.727	C.3	1	LIG1	0.000	
34	 C66	7.019	4.046	22.738	C.3	1	LIG1	0.000	
35	 C67	7.010	-5.809	22.414	C.3	1	LIG1	0.000	
36	 C68	5.022	-4.808	22.904	C.3	1	LIG1	0.000	
37	 C69	8.078	-1.190	22.649	C.3	1	LIG1	0.000	
38	 C70	8.564	0.202	22.648	C.3	1	LIG1	0.000	
39	 N71	5.964	4.934	22.905	N.3	1	LIG1	0.000	
40	 S72	5.550	-5.641	21.324	S.O2	1	LIG1	0.000	
@<TRIPOS>BOND
1 6 19 ar
2 7 27 1
3 2 8 2
4 3 9 2
5 9 25 1
6 6 10 ar
7 11 12 ar
8 12 17 ar
9 13 16 ar
10 14 15 ar
11 15 21 ar
12 1 16 1
13 11 16 ar
14 8 17 1
15 13 18 ar
16 17 18 ar
17 19 23 ar
18 14 20 ar
19 21 24 ar
20 10 22 ar
21 22 24 ar
22 20 23 ar
23 23 24 ar
24 22 25 1
25 25 31 1
26 8 26 1
27 26 32 1
28 27 29 1
29 26 28 1
30 29 35 1
31 29 36 1
32 7 30 1
33 31 37 1
34 32 38 1
35 33 39 1
36 28 34 1
37 35 40 1
38 30 37 1
39 9 38 1
40 18 38 1
41 37 38 1
42 34 39 1
43 4 40 2
44 5 40 2
45 36 40 1
@<TRIPOS>SUBSTRUCTURE
1	LIG1	1	GROUP	1 C	LIG
