# created with PyMOL 3.1.3.1
@<TRIPOS>MOLECULE
predicted
19 21 1                 
SMALL
USER_CHARGES
@<TRIPOS>ATOM
1	 O19	8.831	1.429	20.443	O.2	1	LIG1	0.000	
2	 N20	6.240	0.186	17.313	N.2	1	LIG1	0.000	
3	 C21	8.741	0.389	21.083	C.2	1	LIG1	0.000	
4	 C22	6.999	-0.267	18.293	C.2	1	LIG1	0.000	
5	 C23	3.159	1.987	20.462	C.2	1	LIG1	0.000	
6	 C24	3.939	1.560	21.486	C.2	1	LIG1	0.000	
7	 C25	5.120	0.803	17.564	C.2	1	LIG1	0.000	
8	 C26	3.531	1.753	19.170	C.2	1	LIG1	0.000	
9	 C27	5.113	0.903	21.261	C.2	1	LIG1	0.000	
10	 C28	6.727	-0.063	19.629	C.2	1	LIG1	0.000	
11	 C29	4.704	1.080	18.879	C.2	1	LIG1	0.000	
12	 C30	5.505	0.632	19.949	C.2	1	LIG1	0.000	
13	 N31	9.603	0.128	22.117	N.pl3	1	LIG1	0.000	
14	 C32	7.655	-0.597	20.707	C.3	1	LIG1	0.000	
15	 C33	9.453	-1.000	23.021	C.3	1	LIG1	0.000	
16	 C34	10.711	1.027	22.439	C.3	1	LIG1	0.000	
17	 C35	10.752	-1.804	23.130	C.3	1	LIG1	0.000	
18	 C36	12.029	0.225	22.488	C.3	1	LIG1	0.000	
19	 C37	11.952	-0.888	23.504	C.3	1	LIG1	0.000	
@<TRIPOS>BOND
1 1 3 2
2 2 7 ar
3 3 13 1
4 3 14 1
5 2 4 ar
6 5 6 ar
7 6 9 ar
8 7 11 ar
9 5 8 ar
10 9 12 ar
11 4 10 ar
12 10 12 ar
13 8 11 ar
14 11 12 ar
15 13 15 1
16 13 16 1
17 10 14 1
18 15 17 1
19 17 19 1
20 16 18 1
21 18 19 1
@<TRIPOS>SUBSTRUCTURE
1	LIG1	1	GROUP	1 C	LIG
