# created with PyMOL 3.1.3.1
@<TRIPOS>MOLECULE
predicted
27 30 1                 
SMALL
USER_CHARGES
@<TRIPOS>ATOM
1	 O21	8.019	1.345	20.863	O.2	1	LIG1	0.000	
2	 N22	6.008	0.055	17.194	N.2	1	LIG1	0.000	
3	 C23	8.038	0.196	21.269	C.2	1	LIG1	0.000	
4	 C24	6.420	0.398	24.401	C.3	1	LIG1	0.000	
5	 C25	6.299	-1.088	24.853	C.3	1	LIG1	0.000	
6	 C26	7.411	1.386	23.984	C.3	1	LIG1	0.000	
7	 C27	6.920	-2.140	24.010	C.3	1	LIG1	0.000	
8	 C28	8.798	0.947	23.421	C.3	1	LIG1	0.000	
9	 C29	8.379	-2.048	24.030	C.3	1	LIG1	0.000	
10	 C30	6.753	-0.473	18.175	C.2	1	LIG1	0.000	
11	 C31	13.328	-1.258	23.147	C.2	1	LIG1	0.000	
12	 C32	12.686	-1.148	21.916	C.2	1	LIG1	0.000	
13	 C33	12.600	-1.419	24.272	C.2	1	LIG1	0.000	
14	 C34	11.301	-1.182	21.859	C.2	1	LIG1	0.000	
15	 C35	11.194	-1.469	24.195	C.2	1	LIG1	0.000	
16	 C36	2.801	1.609	20.352	C.2	1	LIG1	0.000	
17	 C37	3.548	1.114	21.371	C.2	1	LIG1	0.000	
18	 C38	10.573	-1.393	22.983	C.2	1	LIG1	0.000	
19	 C39	4.881	0.643	17.449	C.2	1	LIG1	0.000	
20	 C40	3.228	1.467	19.051	C.2	1	LIG1	0.000	
21	 C41	4.721	0.479	21.128	C.2	1	LIG1	0.000	
22	 C42	6.401	-0.349	19.505	C.2	1	LIG1	0.000	
23	 C43	4.417	0.817	18.759	C.2	1	LIG1	0.000	
24	 C44	5.189	0.296	19.825	C.2	1	LIG1	0.000	
25	 N45	8.618	-0.080	22.481	N.pl3	1	LIG1	0.000	
26	 C46	7.319	-0.897	20.534	C.3	1	LIG1	0.000	
27	 C47	9.062	-1.444	22.847	C.3	1	LIG1	0.000	
@<TRIPOS>BOND
1 1 3 2
2 2 19 ar
3 3 25 1
4 3 26 1
5 4 5 1
6 5 7 1
7 4 6 1
8 7 9 1
9 6 8 1
10 9 27 1
11 2 10 ar
12 11 13 ar
13 11 12 ar
14 13 15 ar
15 12 14 ar
16 16 17 ar
17 17 21 ar
18 14 18 ar
19 15 18 ar
20 19 23 ar
21 16 20 ar
22 21 24 ar
23 10 22 ar
24 22 24 ar
25 20 23 ar
26 23 24 ar
27 8 25 1
28 25 27 1
29 22 26 1
30 18 27 1
@<TRIPOS>SUBSTRUCTURE
1	LIG1	1	GROUP	1 C	LIG
