# created with PyMOL 3.1.3.1
@<TRIPOS>MOLECULE
predicted
35 40 1                 
SMALL
USER_CHARGES
@<TRIPOS>ATOM
1	CL29	-13.137	-3.080	-21.841	Cl	1	LIG1	0.000	
2	 O26	-10.202	2.309	-24.442	O.2	1	LIG1	0.000	
3	 O27	-5.382	2.615	-24.306	O.2	1	LIG1	0.000	
4	 O28	-8.347	0.587	-21.420	O.2	1	LIG1	0.000	
5	 N30	-6.025	-0.553	-17.866	N.2	1	LIG1	0.000	
6	 C31	-9.736	1.166	-24.235	C.2	1	LIG1	0.000	
7	 C32	-6.542	2.487	-24.101	C.2	1	LIG1	0.000	
8	 C33	-7.957	-0.482	-21.853	C.2	1	LIG1	0.000	
9	 C34	-6.690	-1.001	-18.906	C.2	1	LIG1	0.000	
10	 C35	-12.754	-0.719	-23.028	C.2	1	LIG1	0.000	
11	 C36	-11.973	0.278	-23.576	C.2	1	LIG1	0.000	
12	 C37	-10.772	-2.011	-22.486	C.2	1	LIG1	0.000	
13	 C38	-2.604	1.186	-20.825	C.2	1	LIG1	0.000	
14	 C39	-3.279	0.701	-21.922	C.2	1	LIG1	0.000	
15	 C40	-12.155	-1.859	-22.472	C.2	1	LIG1	0.000	
16	 C41	-10.586	0.127	-23.605	C.2	1	LIG1	0.000	
17	 C42	-9.992	-1.050	-23.123	C.2	1	LIG1	0.000	
18	 C43	-4.854	0.091	-18.049	C.2	1	LIG1	0.000	
19	 C44	-3.120	0.992	-19.541	C.2	1	LIG1	0.000	
20	 C45	-4.444	0.038	-21.751	C.2	1	LIG1	0.000	
21	 C46	-6.215	-0.825	-20.224	C.2	1	LIG1	0.000	
22	 C47	-4.308	0.319	-19.340	C.2	1	LIG1	0.000	
23	 C48	-4.990	-0.157	-20.468	C.2	1	LIG1	0.000	
24	 N49	-7.032	2.912	-22.928	N.pl3	1	LIG1	0.000	
25	 N50	-6.976	-1.235	-21.296	N.pl3	1	LIG1	0.000	
26	 N51	-8.369	0.893	-24.488	N.pl3	1	LIG1	0.000	
27	 C52	-6.191	3.490	-21.924	C.3	1	LIG1	0.000	
28	 C53	-6.664	1.250	-26.295	C.3	1	LIG1	0.000	
29	 C54	-7.536	2.175	-26.567	C.3	1	LIG1	0.000	
30	 C55	-7.534	1.925	-25.135	C.3	1	LIG1	0.000	
31	 C56	-7.894	-3.391	-24.150	C.3	1	LIG1	0.000	
32	 C57	-6.845	-2.497	-21.948	C.3	1	LIG1	0.000	
33	 C58	-7.858	-0.461	-24.326	C.3	1	LIG1	0.000	
34	 C59	-7.951	-2.541	-22.948	C.3	1	LIG1	0.000	
35	 C60	-8.472	-1.148	-23.096	C.3	1	LIG1	0.000	
@<TRIPOS>BOND
1 5 18 ar
2 2 6 2
3 3 7 2
4 7 30 1
5 4 8 2
6 8 25 1
7 5 9 ar
8 10 11 ar
9 11 16 ar
10 12 15 ar
11 13 14 ar
12 14 20 ar
13 1 15 1
14 10 15 ar
15 6 16 1
16 12 17 ar
17 16 17 ar
18 18 22 ar
19 13 19 ar
20 20 23 ar
21 9 21 ar
22 21 23 ar
23 19 22 ar
24 22 23 ar
25 7 24 1
26 21 25 1
27 25 32 1
28 6 26 1
29 26 33 1
30 24 27 1
31 28 29 1
32 26 30 1
33 28 30 1
34 29 30 1
35 32 34 1
36 33 35 1
37 31 34 1
38 8 35 1
39 17 35 1
40 34 35 1
@<TRIPOS>SUBSTRUCTURE
1	LIG1	1	GROUP	1 C	LIG
