# created with PyMOL 3.1.3.1
@<TRIPOS>MOLECULE
predicted
38 43 1                 
SMALL
USER_CHARGES
@<TRIPOS>ATOM
1	CL34	13.384	-2.049	22.052	Cl	1	LIG1	0.000	
2	 O30	10.107	3.538	23.472	O.2	1	LIG1	0.000	
3	 O31	8.428	1.412	20.720	O.2	1	LIG1	0.000	
4	 O32	5.055	8.437	21.383	O.2	1	LIG1	0.000	
5	 O33	4.727	8.623	23.773	O.2	1	LIG1	0.000	
6	 N35	6.034	-0.047	17.345	N.2	1	LIG1	0.000	
7	 C36	9.705	2.375	23.409	C.2	1	LIG1	0.000	
8	 C37	8.062	0.383	21.269	C.2	1	LIG1	0.000	
9	 C38	6.733	-0.373	18.410	C.2	1	LIG1	0.000	
10	 C39	12.792	0.417	22.775	C.2	1	LIG1	0.000	
11	 C40	11.960	1.455	23.070	C.2	1	LIG1	0.000	
12	 C41	10.890	-0.986	22.296	C.2	1	LIG1	0.000	
13	 C42	2.646	1.891	20.152	C.2	1	LIG1	0.000	
14	 C43	3.354	1.547	21.284	C.2	1	LIG1	0.000	
15	 C44	12.279	-0.785	22.384	C.2	1	LIG1	0.000	
16	 C45	10.602	1.270	23.041	C.2	1	LIG1	0.000	
17	 C46	10.051	0.026	22.700	C.2	1	LIG1	0.000	
18	 C47	4.856	0.560	17.487	C.2	1	LIG1	0.000	
19	 C48	3.139	1.556	18.900	C.2	1	LIG1	0.000	
20	 C49	4.534	0.891	21.163	C.2	1	LIG1	0.000	
21	 C50	6.294	-0.114	19.707	C.2	1	LIG1	0.000	
22	 C51	4.337	0.897	18.745	C.2	1	LIG1	0.000	
23	 C52	5.058	0.566	19.902	C.2	1	LIG1	0.000	
24	 N53	6.293	5.027	22.924	N.3	1	LIG1	0.000	
25	 N54	7.077	-0.417	20.802	N.pl3	1	LIG1	0.000	
26	 N55	8.349	2.125	23.593	N.pl3	1	LIG1	0.000	
27	 C56	6.902	3.750	22.645	C.3	1	LIG1	0.000	
28	 C57	7.457	3.162	23.915	C.3	1	LIG1	0.000	
29	 C58	4.996	5.152	22.274	C.3	1	LIG1	0.000	
30	 C59	7.254	6.112	22.622	C.3	1	LIG1	0.000	
31	 C60	7.862	-2.203	23.883	C.3	1	LIG1	0.000	
32	 C61	6.939	-1.586	21.596	C.3	1	LIG1	0.000	
33	 C62	7.870	0.763	23.691	C.3	1	LIG1	0.000	
34	 C63	4.263	6.284	22.739	C.3	1	LIG1	0.000	
35	 C64	6.868	7.361	23.040	C.3	1	LIG1	0.000	
36	 C65	8.065	-1.514	22.598	C.3	1	LIG1	0.000	
37	 C66	8.554	-0.105	22.601	C.3	1	LIG1	0.000	
38	 S67	5.187	7.820	22.681	S.O2	1	LIG1	0.000	
@<TRIPOS>BOND
1 6 18 ar
2 2 7 2
3 7 16 1
4 3 8 2
5 8 37 1
6 6 9 ar
7 10 15 ar
8 10 11 ar
9 12 17 ar
10 13 14 ar
11 14 20 ar
12 1 15 1
13 12 15 ar
14 11 16 ar
15 16 17 ar
16 18 22 ar
17 13 19 ar
18 20 23 ar
19 9 21 ar
20 21 23 ar
21 19 22 ar
22 22 23 ar
23 24 29 1
24 24 30 1
25 8 25 1
26 21 25 1
27 7 26 1
28 26 28 1
29 24 27 1
30 27 28 1
31 29 34 1
32 31 36 1
33 25 32 1
34 26 33 1
35 34 38 1
36 30 35 1
37 32 36 1
38 36 37 1
39 17 37 1
40 33 37 1
41 4 38 2
42 5 38 2
43 35 38 1
@<TRIPOS>SUBSTRUCTURE
1	LIG1	1	GROUP	1 C	LIG
