# created with PyMOL 3.1.3.1
@<TRIPOS>MOLECULE
predicted
34 38 1                 
SMALL
USER_CHARGES
@<TRIPOS>ATOM
1	CL29	-13.191	-2.880	-21.986	Cl	1	LIG1	0.000	
2	 O26	-10.471	2.615	-24.429	O.2	1	LIG1	0.000	
3	 O27	-8.435	4.510	-24.900	O.2	1	LIG1	0.000	
4	 O28	-8.471	0.876	-21.461	O.2	1	LIG1	0.000	
5	 N30	-6.096	-0.463	-17.924	N.2	1	LIG1	0.000	
6	 C31	-9.953	1.510	-24.252	C.2	1	LIG1	0.000	
7	 C32	-7.835	3.653	-24.332	C.2	1	LIG1	0.000	
8	 C33	-8.068	-0.175	-21.936	C.2	1	LIG1	0.000	
9	 C34	-6.761	-0.852	-18.985	C.2	1	LIG1	0.000	
10	 C35	-12.869	-0.508	-23.126	C.2	1	LIG1	0.000	
11	 C36	-12.137	0.514	-23.649	C.2	1	LIG1	0.000	
12	 C37	-10.851	-1.736	-22.597	C.2	1	LIG1	0.000	
13	 C38	-2.828	1.655	-20.738	C.2	1	LIG1	0.000	
14	 C39	-3.506	1.252	-21.872	C.2	1	LIG1	0.000	
15	 C40	-12.235	-1.630	-22.585	C.2	1	LIG1	0.000	
16	 C41	-10.752	0.424	-23.678	C.2	1	LIG1	0.000	
17	 C42	-10.106	-0.735	-23.217	C.2	1	LIG1	0.000	
18	 C43	-4.960	0.226	-18.066	C.2	1	LIG1	0.000	
19	 C44	-3.309	1.314	-19.480	C.2	1	LIG1	0.000	
20	 C45	-4.646	0.530	-21.750	C.2	1	LIG1	0.000	
21	 C46	-6.332	-0.561	-20.297	C.2	1	LIG1	0.000	
22	 C47	-4.460	0.582	-19.330	C.2	1	LIG1	0.000	
23	 C48	-5.145	0.184	-20.488	C.2	1	LIG1	0.000	
24	 N49	-7.330	3.852	-23.097	N.pl3	1	LIG1	0.000	
25	 N50	-7.089	-0.932	-21.393	N.pl3	1	LIG1	0.000	
26	 N51	-8.569	1.322	-24.454	N.pl3	1	LIG1	0.000	
27	 C52	-7.668	2.316	-24.943	C.3	1	LIG1	0.000	
28	 C53	-6.035	5.420	-21.864	C.3	1	LIG1	0.000	
29	 C54	-7.368	5.173	-22.470	C.3	1	LIG1	0.000	
30	 C55	-8.038	-2.983	-24.319	C.3	1	LIG1	0.000	
31	 C56	-6.940	-2.165	-22.090	C.3	1	LIG1	0.000	
32	 C57	-8.010	-0.006	-24.426	C.3	1	LIG1	0.000	
33	 C58	-8.029	-2.171	-23.116	C.3	1	LIG1	0.000	
34	 C59	-8.596	-0.792	-23.206	C.3	1	LIG1	0.000	
@<TRIPOS>BOND
1 5 18 ar
2 2 6 2
3 3 7 2
4 7 27 1
5 4 8 2
6 8 25 1
7 5 9 ar
8 10 11 ar
9 11 16 ar
10 12 15 ar
11 13 14 ar
12 14 20 ar
13 1 15 1
14 10 15 ar
15 6 16 1
16 12 17 ar
17 16 17 ar
18 18 22 ar
19 13 19 ar
20 20 23 ar
21 9 21 ar
22 21 23 ar
23 19 22 ar
24 22 23 ar
25 7 24 1
26 21 25 1
27 25 31 1
28 6 26 1
29 26 32 1
30 26 27 1
31 28 29 1
32 24 29 1
33 31 33 1
34 32 34 1
35 30 33 1
36 8 34 1
37 17 34 1
38 33 34 1
@<TRIPOS>SUBSTRUCTURE
1	LIG1	1	GROUP	1 C	LIG
