# created with PyMOL 3.1.3.1
@<TRIPOS>MOLECULE
predicted
36 41 1                 
SMALL
USER_CHARGES
@<TRIPOS>ATOM
1	CL27	-13.313	-3.079	-21.824	Cl	1	LIG1	0.000	
2	 O25	-10.615	2.363	-24.588	O.2	1	LIG1	0.000	
3	 O26	-8.591	0.611	-21.562	O.2	1	LIG1	0.000	
4	 N28	-6.207	-0.567	-18.067	N.2	1	LIG1	0.000	
5	 N29	-5.356	3.629	-23.242	N.pl3	1	LIG1	0.000	
6	 O30	-7.489	-3.952	-24.968	O.3	1	LIG1	0.000	
7	 C31	-10.107	1.243	-24.388	C.2	1	LIG1	0.000	
8	 C32	-8.201	-0.441	-22.036	C.2	1	LIG1	0.000	
9	 C33	-5.764	3.055	-24.441	C.2	1	LIG1	0.000	
10	 C34	-6.881	-0.994	-19.115	C.2	1	LIG1	0.000	
11	 C35	-13.004	-0.716	-23.108	C.2	1	LIG1	0.000	
12	 C36	-12.272	0.280	-23.682	C.2	1	LIG1	0.000	
13	 C37	-10.976	-1.972	-22.627	C.2	1	LIG1	0.000	
14	 C38	-2.857	1.325	-20.981	C.2	1	LIG1	0.000	
15	 C39	-3.525	0.856	-22.095	C.2	1	LIG1	0.000	
16	 C40	-12.357	-1.842	-22.562	C.2	1	LIG1	0.000	
17	 C41	-10.891	0.161	-23.749	C.2	1	LIG1	0.000	
18	 C42	-7.103	2.769	-24.276	C.2	1	LIG1	0.000	
19	 C43	-10.234	-1.006	-23.295	C.2	1	LIG1	0.000	
20	 C44	-5.054	0.099	-18.239	C.2	1	LIG1	0.000	
21	 C45	-3.358	1.077	-19.701	C.2	1	LIG1	0.000	
22	 C46	-4.681	0.161	-21.951	C.2	1	LIG1	0.000	
23	 C47	-6.424	-0.798	-20.439	C.2	1	LIG1	0.000	
24	 C48	-7.457	3.240	-23.041	C.2	1	LIG1	0.000	
25	 C49	-4.532	0.371	-19.525	C.2	1	LIG1	0.000	
26	 C50	-5.214	-0.080	-20.667	C.2	1	LIG1	0.000	
27	 N51	-7.188	-1.195	-21.504	N.pl3	1	LIG1	0.000	
28	 N52	-8.771	1.027	-24.664	N.pl3	1	LIG1	0.000	
29	 N53	-6.373	3.761	-22.443	N.2	1	LIG1	0.000	
30	 C54	-7.908	-4.727	-26.077	C.3	1	LIG1	0.000	
31	 C55	-7.994	2.076	-25.306	C.3	1	LIG1	0.000	
32	 C56	-8.460	-3.258	-24.407	C.3	1	LIG1	0.000	
33	 C57	-7.065	-2.442	-22.231	C.3	1	LIG1	0.000	
34	 C58	-8.174	-0.296	-24.548	C.3	1	LIG1	0.000	
35	 C59	-8.165	-2.462	-23.218	C.3	1	LIG1	0.000	
36	 C60	-8.739	-1.065	-23.307	C.3	1	LIG1	0.000	
@<TRIPOS>BOND
1 4 20 ar
2 5 29 ar
3 6 32 1
4 2 7 2
5 7 17 1
6 3 8 2
7 8 36 1
8 5 9 ar
9 4 10 ar
10 11 16 ar
11 11 12 ar
12 13 19 ar
13 14 15 ar
14 15 22 ar
15 1 16 1
16 13 16 ar
17 12 17 ar
18 17 19 ar
19 9 18 ar
20 18 24 ar
21 20 25 ar
22 14 21 ar
23 22 26 ar
24 10 23 ar
25 23 26 ar
26 21 25 ar
27 25 26 ar
28 8 27 1
29 23 27 1
30 7 28 1
31 28 31 1
32 24 29 ar
33 6 30 1
34 18 31 1
35 32 35 1
36 27 33 1
37 28 34 1
38 33 35 1
39 35 36 1
40 19 36 1
41 34 36 1
@<TRIPOS>SUBSTRUCTURE
1	LIG1	1	GROUP	1 C	LIG
