# created with PyMOL 3.1.3.1
@<TRIPOS>MOLECULE
predicted
40 45 1                 
SMALL
USER_CHARGES
@<TRIPOS>ATOM
1	CL30	-13.214	-2.966	-21.879	Cl	1	LIG1	0.000	
2	 O27	-10.652	2.669	-24.248	O.2	1	LIG1	0.000	
3	 O28	-5.804	2.494	-24.335	O.2	1	LIG1	0.000	
4	 O29	-8.560	0.874	-21.372	O.2	1	LIG1	0.000	
5	 N31	-6.930	-5.006	-28.450	N.2	1	LIG1	0.000	
6	 N32	-7.096	-3.428	-26.719	N.2	1	LIG1	0.000	
7	 N33	-6.183	-0.501	-17.867	N.2	1	LIG1	0.000	
8	 C34	-10.130	1.543	-24.125	C.2	1	LIG1	0.000	
9	 C35	-6.905	2.845	-24.049	C.2	1	LIG1	0.000	
10	 C36	-8.179	-0.171	-21.847	C.2	1	LIG1	0.000	
11	 C37	-6.807	-3.744	-27.958	C.2	1	LIG1	0.000	
12	 C38	-7.442	-5.953	-27.655	C.2	1	LIG1	0.000	
13	 C39	-6.867	-0.881	-18.941	C.2	1	LIG1	0.000	
14	 C40	-7.614	-4.381	-25.885	C.2	1	LIG1	0.000	
15	 C41	-7.764	-5.682	-26.306	C.2	1	LIG1	0.000	
16	 C42	-12.972	-0.564	-22.983	C.2	1	LIG1	0.000	
17	 C43	-12.263	0.481	-23.499	C.2	1	LIG1	0.000	
18	 C44	-10.908	-1.767	-22.546	C.2	1	LIG1	0.000	
19	 C45	-2.800	1.418	-20.704	C.2	1	LIG1	0.000	
20	 C46	-3.476	1.013	-21.839	C.2	1	LIG1	0.000	
21	 C47	-12.300	-1.695	-22.501	C.2	1	LIG1	0.000	
22	 C48	-10.884	0.421	-23.566	C.2	1	LIG1	0.000	
23	 C49	-10.207	-0.742	-23.144	C.2	1	LIG1	0.000	
24	 C50	-5.027	0.133	-18.019	C.2	1	LIG1	0.000	
25	 C51	-3.311	1.130	-19.433	C.2	1	LIG1	0.000	
26	 C52	-4.653	0.342	-21.716	C.2	1	LIG1	0.000	
27	 C53	-6.422	-0.622	-20.246	C.2	1	LIG1	0.000	
28	 C54	-4.496	0.452	-19.287	C.2	1	LIG1	0.000	
29	 C55	-5.184	0.062	-20.446	C.2	1	LIG1	0.000	
30	 N56	-7.172	3.465	-22.892	N.pl3	1	LIG1	0.000	
31	 N57	-7.945	-4.043	-24.626	N.pl3	1	LIG1	0.000	
32	 N58	-7.189	-0.965	-21.327	N.pl3	1	LIG1	0.000	
33	 N59	-8.791	1.395	-24.392	N.pl3	1	LIG1	0.000	
34	 C60	-6.144	3.836	-21.990	C.3	1	LIG1	0.000	
35	 C61	-8.062	2.506	-24.936	C.3	1	LIG1	0.000	
36	 C62	-8.164	-2.711	-24.376	C.3	1	LIG1	0.000	
37	 C63	-7.060	-2.184	-22.055	C.3	1	LIG1	0.000	
38	 C64	-8.171	0.084	-24.350	C.3	1	LIG1	0.000	
39	 C65	-8.116	-2.144	-23.103	C.3	1	LIG1	0.000	
40	 C66	-8.702	-0.769	-23.138	C.3	1	LIG1	0.000	
@<TRIPOS>BOND
1 5 11 ar
2 7 24 ar
3 2 8 2
4 3 9 2
5 9 35 1
6 4 10 2
7 10 32 1
8 6 11 ar
9 5 12 ar
10 7 13 ar
11 6 14 ar
12 14 15 ar
13 12 15 ar
14 16 17 ar
15 17 22 ar
16 18 21 ar
17 19 20 ar
18 20 26 ar
19 1 21 1
20 16 21 ar
21 8 22 1
22 18 23 ar
23 22 23 ar
24 24 28 ar
25 19 25 ar
26 26 29 ar
27 13 27 ar
28 27 29 ar
29 25 28 ar
30 28 29 ar
31 9 30 1
32 14 31 1
33 27 32 1
34 32 37 1
35 8 33 1
36 33 38 1
37 30 34 1
38 33 35 1
39 31 36 1
40 37 39 1
41 38 40 1
42 36 39 1
43 10 40 1
44 23 40 1
45 39 40 1
@<TRIPOS>SUBSTRUCTURE
1	LIG1	1	GROUP	1 C	LIG
