# created with PyMOL 3.1.3.1
@<TRIPOS>MOLECULE
predicted
34 39 1                 
SMALL
USER_CHARGES
@<TRIPOS>ATOM
1	CL31	13.643	-1.969	21.879	Cl	1	LIG1	0.000	
2	 O29	10.379	3.549	23.759	O.2	1	LIG1	0.000	
3	 O30	8.647	1.478	20.937	O.2	1	LIG1	0.000	
4	 N32	6.243	0.072	17.534	N.2	1	LIG1	0.000	
5	 C33	9.986	2.383	23.661	C.2	1	LIG1	0.000	
6	 C34	8.293	0.432	21.466	C.2	1	LIG1	0.000	
7	 C35	6.951	-0.284	18.593	C.2	1	LIG1	0.000	
8	 C36	13.067	0.488	22.775	C.2	1	LIG1	0.000	
9	 C37	12.246	1.500	23.173	C.2	1	LIG1	0.000	
10	 C38	11.160	-0.926	22.323	C.2	1	LIG1	0.000	
11	 C39	2.838	1.863	20.401	C.2	1	LIG1	0.000	
12	 C40	3.549	1.493	21.519	C.2	1	LIG1	0.000	
13	 C41	12.529	-0.709	22.345	C.2	1	LIG1	0.000	
14	 C42	10.880	1.303	23.201	C.2	1	LIG1	0.000	
15	 C43	10.323	0.061	22.823	C.2	1	LIG1	0.000	
16	 C44	5.066	0.666	17.700	C.2	1	LIG1	0.000	
17	 C45	3.336	1.591	19.137	C.2	1	LIG1	0.000	
18	 C46	4.737	0.863	21.384	C.2	1	LIG1	0.000	
19	 C47	6.518	-0.049	19.905	C.2	1	LIG1	0.000	
20	 C48	4.545	0.958	18.971	C.2	1	LIG1	0.000	
21	 C49	5.273	0.595	20.111	C.2	1	LIG1	0.000	
22	 N50	7.315	-0.368	20.990	N.pl3	1	LIG1	0.000	
23	 N51	8.642	2.110	23.876	N.pl3	1	LIG1	0.000	
24	 C52	7.739	3.137	24.263	C.3	1	LIG1	0.000	
25	 C53	5.486	6.441	22.155	C.3	1	LIG1	0.000	
26	 C54	8.176	-2.226	24.008	C.3	1	LIG1	0.000	
27	 C55	7.212	-1.565	21.744	C.3	1	LIG1	0.000	
28	 C56	8.181	0.729	23.934	C.3	1	LIG1	0.000	
29	 C57	7.038	3.557	22.964	C.3	1	LIG1	0.000	
30	 C58	6.566	5.971	23.257	C.3	1	LIG1	0.000	
31	 C59	5.506	4.975	21.768	C.3	1	LIG1	0.000	
32	 C60	8.358	-1.508	22.752	C.3	1	LIG1	0.000	
33	 C61	8.826	-0.088	22.783	C.3	1	LIG1	0.000	
34	 N62	6.338	4.690	22.967	N.3	1	LIG1	0.000	
@<TRIPOS>BOND
1 4 16 ar
2 2 5 2
3 5 14 1
4 3 6 2
5 6 33 1
6 4 7 ar
7 8 13 ar
8 8 9 ar
9 10 15 ar
10 11 12 ar
11 12 18 ar
12 1 13 1
13 10 13 ar
14 9 14 ar
15 14 15 ar
16 16 20 ar
17 11 17 ar
18 18 21 ar
19 7 19 ar
20 19 21 ar
21 17 20 ar
22 20 21 ar
23 6 22 1
24 19 22 1
25 5 23 1
26 23 24 1
27 24 29 1
28 25 31 1
29 26 32 1
30 22 27 1
31 23 28 1
32 29 34 1
33 25 30 1
34 27 32 1
35 32 33 1
36 15 33 1
37 28 33 1
38 30 34 1
39 31 34 1
@<TRIPOS>SUBSTRUCTURE
1	LIG1	1	GROUP	1 C	LIG
