# created with PyMOL 3.1.3.1
@<TRIPOS>MOLECULE
predicted
39 44 1                 
SMALL
USER_CHARGES
@<TRIPOS>ATOM
1	CL31	-13.173	-3.044	-21.766	Cl	1	LIG1	0.000	
2	 O28	-10.530	2.515	-24.272	O.2	1	LIG1	0.000	
3	 O29	-5.706	2.354	-24.222	O.2	1	LIG1	0.000	
4	 O30	-8.440	0.667	-21.366	O.2	1	LIG1	0.000	
5	 N32	-6.096	-0.659	-17.920	N.2	1	LIG1	0.000	
6	 C33	-10.016	1.387	-24.146	C.2	1	LIG1	0.000	
7	 C34	-6.809	2.739	-24.019	C.2	1	LIG1	0.000	
8	 C35	-8.056	-0.371	-21.880	C.2	1	LIG1	0.000	
9	 C36	-6.785	-1.050	-18.987	C.2	1	LIG1	0.000	
10	 C37	-7.441	-6.208	-26.804	C.2	1	LIG1	0.000	
11	 C38	-8.617	-6.205	-26.030	C.2	1	LIG1	0.000	
12	 C39	-6.528	-5.136	-26.732	C.2	1	LIG1	0.000	
13	 C40	-12.870	-0.663	-22.926	C.2	1	LIG1	0.000	
14	 C41	-12.157	0.357	-23.471	C.2	1	LIG1	0.000	
15	 C42	-8.944	-5.089	-25.308	C.2	1	LIG1	0.000	
16	 C43	-6.854	-4.024	-25.975	C.2	1	LIG1	0.000	
17	 C44	-10.824	-1.881	-22.503	C.2	1	LIG1	0.000	
18	 C45	-2.715	1.270	-20.773	C.2	1	LIG1	0.000	
19	 C46	-3.390	0.849	-21.913	C.2	1	LIG1	0.000	
20	 C47	-12.205	-1.789	-22.433	C.2	1	LIG1	0.000	
21	 C48	-10.779	0.271	-23.564	C.2	1	LIG1	0.000	
22	 C49	-8.023	-4.026	-25.206	C.2	1	LIG1	0.000	
23	 C50	-10.114	-0.895	-23.150	C.2	1	LIG1	0.000	
24	 C51	-4.931	-0.015	-18.065	C.2	1	LIG1	0.000	
25	 C52	-3.225	0.991	-19.506	C.2	1	LIG1	0.000	
26	 C53	-4.567	0.166	-21.794	C.2	1	LIG1	0.000	
27	 C54	-6.312	-0.821	-20.299	C.2	1	LIG1	0.000	
28	 C55	-4.399	0.294	-19.352	C.2	1	LIG1	0.000	
29	 C56	-5.085	-0.109	-20.509	C.2	1	LIG1	0.000	
30	 N57	-7.127	3.440	-22.915	N.pl3	1	LIG1	0.000	
31	 N58	-7.082	-1.165	-21.392	N.pl3	1	LIG1	0.000	
32	 N59	-8.668	1.231	-24.404	N.pl3	1	LIG1	0.000	
33	 C60	-6.123	3.873	-21.998	C.3	1	LIG1	0.000	
34	 C61	-7.927	2.344	-24.937	C.3	1	LIG1	0.000	
35	 C62	-8.464	-2.814	-24.506	C.3	1	LIG1	0.000	
36	 C63	-6.973	-2.398	-22.177	C.3	1	LIG1	0.000	
37	 C64	-8.056	-0.079	-24.373	C.3	1	LIG1	0.000	
38	 C65	-8.029	-2.331	-23.228	C.3	1	LIG1	0.000	
39	 C66	-8.603	-0.939	-23.177	C.3	1	LIG1	0.000	
@<TRIPOS>BOND
1 5 24 ar
2 2 6 2
3 3 7 2
4 7 34 1
5 4 8 2
6 8 31 1
7 5 9 ar
8 10 12 ar
9 10 11 ar
10 12 16 ar
11 13 14 ar
12 14 21 ar
13 11 15 ar
14 17 20 ar
15 18 19 ar
16 19 26 ar
17 1 20 1
18 13 20 ar
19 6 21 1
20 15 22 ar
21 16 22 ar
22 17 23 ar
23 21 23 ar
24 24 28 ar
25 18 25 ar
26 26 29 ar
27 9 27 ar
28 27 29 ar
29 25 28 ar
30 28 29 ar
31 7 30 1
32 27 31 1
33 31 36 1
34 6 32 1
35 32 37 1
36 30 33 1
37 32 34 1
38 22 35 1
39 36 38 1
40 37 39 1
41 35 38 1
42 8 39 1
43 23 39 1
44 38 39 1
@<TRIPOS>SUBSTRUCTURE
1	LIG1	1	GROUP	1 C	LIG
