# created with PyMOL 3.1.3.1
@<TRIPOS>MOLECULE
predicted
33 36 1                 
SMALL
USER_CHARGES
@<TRIPOS>ATOM
1	CL27	13.578	-1.494	20.766	Cl	1	LIG1	0.000	
2	 N25	6.012	-6.647	23.703	N.1	1	LIG1	0.000	
3	 O26	8.412	1.126	20.888	O.2	1	LIG1	0.000	
4	 C28	6.577	-5.992	24.380	C.1	1	LIG1	0.000	
5	 N29	6.117	0.192	17.345	N.2	1	LIG1	0.000	
6	 C30	8.084	0.029	21.396	C.2	1	LIG1	0.000	
7	 C31	6.752	-0.388	18.363	C.2	1	LIG1	0.000	
8	 C32	12.685	-0.963	24.658	C.2	1	LIG1	0.000	
9	 C33	13.362	-1.311	23.488	C.2	1	LIG1	0.000	
10	 C34	9.022	-2.652	23.044	C.2	1	LIG1	0.000	
11	 C35	7.271	-1.523	24.187	C.2	1	LIG1	0.000	
12	 C36	11.432	-0.353	24.543	C.2	1	LIG1	0.000	
13	 C37	11.531	-0.480	22.147	C.2	1	LIG1	0.000	
14	 C38	8.737	-3.817	23.706	C.2	1	LIG1	0.000	
15	 C39	6.962	-2.693	24.852	C.2	1	LIG1	0.000	
16	 C40	2.895	2.032	20.310	C.2	1	LIG1	0.000	
17	 C41	3.547	1.491	21.385	C.2	1	LIG1	0.000	
18	 C42	12.781	-1.074	22.242	C.2	1	LIG1	0.000	
19	 C43	8.298	-1.498	23.279	C.2	1	LIG1	0.000	
20	 C44	10.905	-0.076	23.292	C.2	1	LIG1	0.000	
21	 C45	7.717	-3.897	24.630	C.2	1	LIG1	0.000	
22	 C46	5.031	0.878	17.538	C.2	1	LIG1	0.000	
23	 C47	3.375	1.840	19.034	C.2	1	LIG1	0.000	
24	 C48	4.687	0.729	21.227	C.2	1	LIG1	0.000	
25	 C49	6.336	-0.258	19.662	C.2	1	LIG1	0.000	
26	 C50	4.516	1.078	18.823	C.2	1	LIG1	0.000	
27	 C51	5.186	0.509	19.914	C.2	1	LIG1	0.000	
28	 N52	8.589	-0.298	22.587	N.pl3	1	LIG1	0.000	
29	 C53	7.129	-0.933	20.761	C.3	1	LIG1	0.000	
30	 C54	9.552	0.597	23.235	C.3	1	LIG1	0.000	
31	 C55	8.668	-5.914	25.647	C.3	1	LIG1	0.000	
32	 C56	6.620	-4.922	26.600	C.3	1	LIG1	0.000	
33	 C57	7.390	-5.180	25.311	C.3	1	LIG1	0.000	
@<TRIPOS>BOND
1 2 4 3
2 5 22 ar
3 3 6 2
4 6 29 1
5 5 7 ar
6 8 9 ar
7 9 18 ar
8 10 19 ar
9 11 15 ar
10 8 12 ar
11 10 14 ar
12 16 17 ar
13 17 24 ar
14 1 18 1
15 13 18 ar
16 11 19 ar
17 19 28 1
18 12 20 ar
19 13 20 ar
20 14 21 ar
21 15 21 ar
22 22 26 ar
23 16 23 ar
24 24 27 ar
25 7 25 ar
26 25 27 ar
27 23 26 ar
28 26 27 ar
29 6 28 1
30 28 30 1
31 25 29 1
32 20 30 1
33 31 33 1
34 4 33 1
35 21 33 1
36 32 33 1
@<TRIPOS>SUBSTRUCTURE
1	LIG1	1	GROUP	1 C	LIG
