# created with PyMOL 3.1.3.1
@<TRIPOS>MOLECULE
predicted
36 41 1                 
SMALL
USER_CHARGES
@<TRIPOS>ATOM
1	CL33	13.398	-2.138	22.225	Cl	1	LIG1	0.000	
2	 O31	10.104	3.546	23.526	O.2	1	LIG1	0.000	
3	 O32	8.431	1.370	20.783	O.2	1	LIG1	0.000	
4	 N34	6.081	-0.095	17.394	N.2	1	LIG1	0.000	
5	 O35	5.130	7.272	21.614	O.3	1	LIG1	0.000	
6	 C36	9.698	2.375	23.482	C.2	1	LIG1	0.000	
7	 C37	8.067	0.342	21.340	C.2	1	LIG1	0.000	
8	 C38	6.774	-0.436	18.467	C.2	1	LIG1	0.000	
9	 C39	12.801	0.388	22.889	C.2	1	LIG1	0.000	
10	 C40	11.969	1.436	23.160	C.2	1	LIG1	0.000	
11	 C41	10.889	-1.027	22.431	C.2	1	LIG1	0.000	
12	 C42	2.665	1.815	20.186	C.2	1	LIG1	0.000	
13	 C43	3.367	1.451	21.322	C.2	1	LIG1	0.000	
14	 C44	12.282	-0.831	22.521	C.2	1	LIG1	0.000	
15	 C45	10.601	1.258	23.132	C.2	1	LIG1	0.000	
16	 C46	10.047	0.003	22.810	C.2	1	LIG1	0.000	
17	 C47	4.904	0.508	17.526	C.2	1	LIG1	0.000	
18	 C48	3.176	1.494	18.928	C.2	1	LIG1	0.000	
19	 C49	4.546	0.792	21.205	C.2	1	LIG1	0.000	
20	 C50	6.318	-0.190	19.762	C.2	1	LIG1	0.000	
21	 C51	4.366	0.835	18.785	C.2	1	LIG1	0.000	
22	 C52	5.076	0.487	19.951	C.2	1	LIG1	0.000	
23	 N53	7.101	-0.486	20.875	N.pl3	1	LIG1	0.000	
24	 N54	8.343	2.116	23.673	N.pl3	1	LIG1	0.000	
25	 C55	4.194	6.195	22.006	C.3	1	LIG1	0.000	
26	 C56	6.231	7.311	22.602	C.3	1	LIG1	0.000	
27	 C57	7.437	3.177	23.961	C.3	1	LIG1	0.000	
28	 C58	7.906	-2.218	24.006	C.3	1	LIG1	0.000	
29	 C59	6.981	-1.645	21.675	C.3	1	LIG1	0.000	
30	 C60	7.871	0.762	23.777	C.3	1	LIG1	0.000	
31	 C61	4.933	4.891	21.841	C.3	1	LIG1	0.000	
32	 C62	7.015	6.020	22.488	C.3	1	LIG1	0.000	
33	 C63	6.818	3.634	22.648	C.3	1	LIG1	0.000	
34	 C64	8.072	-1.539	22.713	C.3	1	LIG1	0.000	
35	 C65	8.552	-0.127	22.698	C.3	1	LIG1	0.000	
36	 N66	6.106	4.880	22.771	N.3	1	LIG1	0.000	
@<TRIPOS>BOND
1 4 17 ar
2 5 26 1
3 2 6 2
4 6 15 1
5 3 7 2
6 7 35 1
7 4 8 ar
8 9 14 ar
9 9 10 ar
10 11 16 ar
11 12 13 ar
12 13 19 ar
13 1 14 1
14 11 14 ar
15 10 15 ar
16 15 16 ar
17 17 21 ar
18 12 18 ar
19 19 22 ar
20 8 20 ar
21 20 22 ar
22 18 21 ar
23 21 22 ar
24 7 23 1
25 20 23 1
26 6 24 1
27 24 27 1
28 5 25 1
29 26 32 1
30 27 33 1
31 28 34 1
32 23 29 1
33 24 30 1
34 25 31 1
35 33 36 1
36 29 34 1
37 34 35 1
38 16 35 1
39 30 35 1
40 31 36 1
41 32 36 1
@<TRIPOS>SUBSTRUCTURE
1	LIG1	1	GROUP	1 C	LIG
