# created with PyMOL 3.1.3.1
@<TRIPOS>MOLECULE
predicted
33 37 1                 
SMALL
USER_CHARGES
@<TRIPOS>ATOM
1	CL27	-13.291	-3.116	-21.762	Cl	1	LIG1	0.000	
2	 O24	-10.716	2.425	-24.414	O.2	1	LIG1	0.000	
3	 O25	-5.941	2.474	-24.281	O.2	1	LIG1	0.000	
4	 O26	-8.648	0.709	-21.465	O.2	1	LIG1	0.000	
5	 N28	-6.227	-0.542	-17.934	N.2	1	LIG1	0.000	
6	 C29	-10.200	1.296	-24.243	C.2	1	LIG1	0.000	
7	 C30	-7.079	2.735	-24.147	C.2	1	LIG1	0.000	
8	 C31	-8.241	-0.344	-21.928	C.2	1	LIG1	0.000	
9	 C32	-6.904	-0.953	-18.983	C.2	1	LIG1	0.000	
10	 C33	-13.045	-0.732	-23.015	C.2	1	LIG1	0.000	
11	 C34	-12.334	0.283	-23.562	C.2	1	LIG1	0.000	
12	 C35	-10.986	-1.945	-22.513	C.2	1	LIG1	0.000	
13	 C36	-2.846	1.339	-20.820	C.2	1	LIG1	0.000	
14	 C37	-3.524	0.904	-21.940	C.2	1	LIG1	0.000	
15	 C38	-12.371	-1.847	-22.470	C.2	1	LIG1	0.000	
16	 C39	-10.956	0.205	-23.631	C.2	1	LIG1	0.000	
17	 C40	-10.280	-0.948	-23.169	C.2	1	LIG1	0.000	
18	 C41	-5.056	0.108	-18.089	C.2	1	LIG1	0.000	
19	 C42	-3.348	1.079	-19.549	C.2	1	LIG1	0.000	
20	 C43	-4.700	0.237	-21.797	C.2	1	LIG1	0.000	
21	 C44	-6.474	-0.711	-20.301	C.2	1	LIG1	0.000	
22	 C45	-4.540	0.396	-19.378	C.2	1	LIG1	0.000	
23	 C46	-5.239	-0.028	-20.519	C.2	1	LIG1	0.000	
24	 N47	-7.510	3.424	-23.081	N.pl3	1	LIG1	0.000	
25	 N48	-7.237	-1.093	-21.386	N.pl3	1	LIG1	0.000	
26	 N49	-8.853	1.126	-24.510	N.pl3	1	LIG1	0.000	
27	 C50	-6.595	3.964	-22.133	C.3	1	LIG1	0.000	
28	 C51	-8.102	2.206	-25.116	C.3	1	LIG1	0.000	
29	 C52	-8.141	-3.182	-24.308	C.3	1	LIG1	0.000	
30	 C53	-7.076	-2.335	-22.090	C.3	1	LIG1	0.000	
31	 C54	-8.240	-0.205	-24.440	C.3	1	LIG1	0.000	
32	 C55	-8.191	-2.369	-23.084	C.3	1	LIG1	0.000	
33	 C56	-8.782	-0.989	-23.193	C.3	1	LIG1	0.000	
@<TRIPOS>BOND
1 5 18 ar
2 2 6 2
3 3 7 2
4 7 28 1
5 4 8 2
6 8 25 1
7 5 9 ar
8 10 11 ar
9 11 16 ar
10 12 15 ar
11 13 14 ar
12 14 20 ar
13 1 15 1
14 10 15 ar
15 6 16 1
16 12 17 ar
17 16 17 ar
18 18 22 ar
19 13 19 ar
20 20 23 ar
21 9 21 ar
22 21 23 ar
23 19 22 ar
24 22 23 ar
25 7 24 1
26 21 25 1
27 25 30 1
28 6 26 1
29 26 31 1
30 24 27 1
31 26 28 1
32 30 32 1
33 31 33 1
34 29 32 1
35 8 33 1
36 17 33 1
37 32 33 1
@<TRIPOS>SUBSTRUCTURE
1	LIG1	1	GROUP	1 C	LIG
