# created with PyMOL 3.1.3.1
@<TRIPOS>MOLECULE
predicted
42 48 1                 
SMALL
USER_CHARGES
@<TRIPOS>ATOM
1	CL28	13.231	-2.090	22.089	Cl	1	LIG1	0.000	
2	 O26	10.042	3.431	24.011	O.2	1	LIG1	0.000	
3	 O27	8.382	1.470	21.043	O.2	1	LIG1	0.000	
4	 N29	9.334	-6.954	25.133	N.2	1	LIG1	0.000	
5	 N30	4.246	4.399	22.341	N.2	1	LIG1	0.000	
6	 N31	4.030	3.775	23.543	N.2	1	LIG1	0.000	
7	 N32	8.844	-4.676	25.254	N.2	1	LIG1	0.000	
8	 N33	6.075	0.125	17.504	N.2	1	LIG1	0.000	
9	 C34	9.617	2.289	23.874	C.2	1	LIG1	0.000	
10	 C35	7.981	0.421	21.517	C.2	1	LIG1	0.000	
11	 C36	9.523	-5.731	25.664	C.2	1	LIG1	0.000	
12	 C37	8.396	-7.126	24.184	C.2	1	LIG1	0.000	
13	 C38	5.478	4.524	21.850	C.2	1	LIG1	0.000	
14	 C39	5.022	3.397	24.346	C.2	1	LIG1	0.000	
15	 C40	6.757	-0.264	18.585	C.2	1	LIG1	0.000	
16	 C41	7.912	-4.772	24.285	C.2	1	LIG1	0.000	
17	 C42	7.643	-6.034	23.733	C.2	1	LIG1	0.000	
18	 C43	12.674	0.342	23.037	C.2	1	LIG1	0.000	
19	 C44	11.854	1.366	23.414	C.2	1	LIG1	0.000	
20	 C45	6.554	4.111	22.608	C.2	1	LIG1	0.000	
21	 C46	10.760	-1.024	22.490	C.2	1	LIG1	0.000	
22	 C47	2.554	1.814	20.334	C.2	1	LIG1	0.000	
23	 C48	3.235	1.409	21.473	C.2	1	LIG1	0.000	
24	 C49	12.140	-0.847	22.572	C.2	1	LIG1	0.000	
25	 C50	10.487	1.200	23.391	C.2	1	LIG1	0.000	
26	 C51	6.329	3.474	23.839	C.2	1	LIG1	0.000	
27	 C52	9.928	-0.017	22.971	C.2	1	LIG1	0.000	
28	 C53	4.880	0.706	17.661	C.2	1	LIG1	0.000	
29	 C54	3.106	1.573	19.068	C.2	1	LIG1	0.000	
30	 C55	4.438	0.790	21.360	C.2	1	LIG1	0.000	
31	 C56	6.269	-0.044	19.881	C.2	1	LIG1	0.000	
32	 C57	4.316	0.953	18.930	C.2	1	LIG1	0.000	
33	 C58	5.005	0.569	20.089	C.2	1	LIG1	0.000	
34	 N59	7.242	-3.677	23.836	N.pl3	1	LIG1	0.000	
35	 N60	7.029	-0.387	20.976	N.pl3	1	LIG1	0.000	
36	 N61	8.275	2.030	24.100	N.pl3	1	LIG1	0.000	
37	 C62	7.486	3.061	24.699	C.3	1	LIG1	0.000	
38	 C63	7.646	-2.277	24.040	C.3	1	LIG1	0.000	
39	 C64	6.890	-1.605	21.688	C.3	1	LIG1	0.000	
40	 C65	7.748	0.677	23.997	C.3	1	LIG1	0.000	
41	 C66	7.933	-1.567	22.785	C.3	1	LIG1	0.000	
42	 C67	8.421	-0.142	22.855	C.3	1	LIG1	0.000	
@<TRIPOS>BOND
1 2 9 2
2 4 11 ar
3 5 6 ar
4 6 14 ar
5 8 28 ar
6 9 25 1
7 9 36 1
8 3 10 2
9 10 35 1
10 7 11 ar
11 4 12 ar
12 5 13 ar
13 8 15 ar
14 7 16 ar
15 16 17 ar
16 12 17 ar
17 18 24 ar
18 18 19 ar
19 13 20 ar
20 21 27 ar
21 22 23 ar
22 23 30 ar
23 1 24 1
24 21 24 ar
25 19 25 ar
26 25 27 ar
27 14 26 ar
28 20 26 ar
29 27 42 1
30 28 32 ar
31 22 29 ar
32 30 33 ar
33 15 31 ar
34 31 33 ar
35 29 32 ar
36 32 33 ar
37 16 34 1
38 31 35 1
39 35 39 1
40 36 37 1
41 26 37 1
42 34 38 1
43 39 41 1
44 36 40 1
45 38 41 1
46 10 42 1
47 40 42 1
48 41 42 1
@<TRIPOS>SUBSTRUCTURE
1	LIG1	1	GROUP	1 C	LIG
