# created with PyMOL 3.1.3.1
@<TRIPOS>MOLECULE
predicted
23 25 1                 
SMALL
USER_CHARGES
@<TRIPOS>ATOM
1	 O18	-8.214	0.294	-21.208	O.2	1	LIG1	0.000	
2	 N22	-5.989	-0.719	-17.779	N.2	1	LIG1	0.000	
3	 C23	-8.066	-0.801	-21.687	C.2	1	LIG1	0.000	
4	 C24	-6.643	-1.272	-18.794	C.2	1	LIG1	0.000	
5	 C25	-2.772	1.081	-20.765	C.2	1	LIG1	0.000	
6	 C26	-3.418	0.539	-21.821	C.2	1	LIG1	0.000	
7	 C27	-4.906	-0.048	-17.967	C.2	1	LIG1	0.000	
8	 C28	-3.247	0.910	-19.483	C.2	1	LIG1	0.000	
9	 C29	-4.560	-0.172	-21.644	C.2	1	LIG1	0.000	
10	 C30	-6.213	-1.140	-20.070	C.2	1	LIG1	0.000	
11	 C31	-4.383	0.181	-19.248	C.2	1	LIG1	0.000	
12	 C32	-5.050	-0.383	-20.360	C.2	1	LIG1	0.000	
13	 N33	-8.830	-1.159	-22.751	N.pl3	1	LIG1	0.000	
14	 C34	-7.033	-1.751	-21.174	C.3	1	LIG1	0.000	
15	 C35	-12.735	-2.321	-23.665	C.3	1	LIG1	0.000	
16	 C36	-9.642	-0.138	-23.409	C.3	1	LIG1	0.000	
17	 C37	-8.884	-2.503	-23.255	C.3	1	LIG1	0.000	
18	 C38	-11.073	-0.553	-23.281	C.3	1	LIG1	0.000	
19	 C39	-10.353	-2.943	-23.113	C.3	1	LIG1	0.000	
20	 C40	-11.293	-1.957	-23.767	C.3	1	LIG1	0.000	
21	 F19	-13.419	-1.570	-24.522	 F	1	LIG1	0.000	
22	 F20	-13.213	-2.121	-22.437	 F	1	LIG1	0.000	
23	 F21	-12.946	-3.612	-23.975	 F	1	LIG1	0.000	
@<TRIPOS>BOND
1 1 3 2
2 2 7 ar
3 3 13 1
4 3 14 1
5 2 4 ar
6 5 6 ar
7 6 9 ar
8 7 11 ar
9 5 8 ar
10 9 12 ar
11 4 10 ar
12 10 12 ar
13 8 11 ar
14 11 12 ar
15 13 16 1
16 13 17 1
17 10 14 1
18 15 21 1
19 15 22 1
20 15 23 1
21 16 18 1
22 18 20 1
23 17 19 1
24 15 20 1
25 19 20 1
@<TRIPOS>SUBSTRUCTURE
1	LIG1	1	GROUP	1 C	LIG
