# created with PyMOL 3.1.3.1
@<TRIPOS>MOLECULE
predicted
21 23 1                 
SMALL
USER_CHARGES
@<TRIPOS>ATOM
1	 O21	8.357	1.281	20.639	O.2	1	LIG1	0.000	
2	 N22	6.053	0.044	17.222	N.2	1	LIG1	0.000	
3	 O23	11.755	0.424	23.254	O.3	1	LIG1	0.000	
4	 C24	8.286	0.192	21.171	C.2	1	LIG1	0.000	
5	 C25	6.819	-0.478	18.199	C.2	1	LIG1	0.000	
6	 C26	2.953	1.667	20.443	C.2	1	LIG1	0.000	
7	 C27	3.721	1.173	21.454	C.2	1	LIG1	0.000	
8	 C28	4.939	0.649	17.496	C.2	1	LIG1	0.000	
9	 C29	3.340	1.506	19.135	C.2	1	LIG1	0.000	
10	 C30	4.889	0.527	21.190	C.2	1	LIG1	0.000	
11	 C31	6.495	-0.336	19.515	C.2	1	LIG1	0.000	
12	 C32	4.508	0.848	18.817	C.2	1	LIG1	0.000	
13	 C33	5.301	0.336	19.872	C.2	1	LIG1	0.000	
14	 N34	8.909	-0.028	22.375	N.pl3	1	LIG1	0.000	
15	 C35	7.430	-0.886	20.558	C.3	1	LIG1	0.000	
16	 C36	10.879	1.312	22.726	C.3	1	LIG1	0.000	
17	 C37	9.450	1.029	23.166	C.3	1	LIG1	0.000	
18	 C38	9.157	-1.320	22.957	C.3	1	LIG1	0.000	
19	 C39	13.100	-1.538	22.897	C.3	1	LIG1	0.000	
20	 C40	10.543	-1.814	22.745	C.3	1	LIG1	0.000	
21	 C41	11.727	-0.883	22.771	C.3	1	LIG1	0.000	
@<TRIPOS>BOND
1 2 8 ar
2 1 4 2
3 4 15 1
4 2 5 ar
5 6 7 ar
6 7 10 ar
7 8 12 ar
8 6 9 ar
9 10 13 ar
10 5 11 ar
11 11 13 ar
12 9 12 ar
13 12 13 ar
14 4 14 1
15 14 17 1
16 11 15 1
17 3 16 1
18 16 17 1
19 14 18 1
20 19 21 1
21 18 20 1
22 3 21 1
23 20 21 1
@<TRIPOS>SUBSTRUCTURE
1	LIG1	1	GROUP	1 C	LIG
