# created with PyMOL 3.1.3.1
@<TRIPOS>MOLECULE
predicted
40 45 1                 
SMALL
USER_CHARGES
@<TRIPOS>ATOM
1	CL32	-13.214	-3.094	-21.824	Cl	1	LIG1	0.000	
2	 O29	-10.612	2.459	-24.387	O.2	1	LIG1	0.000	
3	 O30	-5.745	2.389	-24.362	O.2	1	LIG1	0.000	
4	 O31	-8.554	0.761	-21.381	O.2	1	LIG1	0.000	
5	 N33	-6.158	-0.504	-17.864	N.2	1	LIG1	0.000	
6	 C34	-10.074	1.360	-24.190	C.2	1	LIG1	0.000	
7	 C35	-6.860	2.689	-24.092	C.2	1	LIG1	0.000	
8	 C36	-8.135	-0.281	-21.843	C.2	1	LIG1	0.000	
9	 C37	-6.842	-0.918	-18.931	C.2	1	LIG1	0.000	
10	 C38	-8.066	-6.072	-28.131	C.2	1	LIG1	0.000	
11	 C39	-6.817	-5.544	-27.796	C.2	1	LIG1	0.000	
12	 C40	-9.109	-5.963	-27.206	C.2	1	LIG1	0.000	
13	 C41	-12.915	-0.705	-23.011	C.2	1	LIG1	0.000	
14	 C42	-12.209	0.317	-23.556	C.2	1	LIG1	0.000	
15	 C43	-6.602	-4.951	-26.556	C.2	1	LIG1	0.000	
16	 C44	-8.902	-5.364	-25.974	C.2	1	LIG1	0.000	
17	 C45	-10.859	-1.895	-22.503	C.2	1	LIG1	0.000	
18	 C46	-2.790	1.403	-20.737	C.2	1	LIG1	0.000	
19	 C47	-3.461	0.967	-21.866	C.2	1	LIG1	0.000	
20	 C48	-12.246	-1.810	-22.481	C.2	1	LIG1	0.000	
21	 C49	-10.823	0.250	-23.602	C.2	1	LIG1	0.000	
22	 C50	-7.667	-4.848	-25.686	C.2	1	LIG1	0.000	
23	 C51	-10.151	-0.888	-23.133	C.2	1	LIG1	0.000	
24	 C52	-5.002	0.150	-18.031	C.2	1	LIG1	0.000	
25	 C53	-3.300	1.134	-19.479	C.2	1	LIG1	0.000	
26	 C54	-4.633	0.284	-21.731	C.2	1	LIG1	0.000	
27	 C55	-6.380	-0.669	-20.234	C.2	1	LIG1	0.000	
28	 C56	-4.473	0.443	-19.311	C.2	1	LIG1	0.000	
29	 C57	-5.157	0.023	-20.467	C.2	1	LIG1	0.000	
30	 N58	-7.163	3.316	-22.945	N.pl3	1	LIG1	0.000	
31	 N59	-7.485	-4.193	-24.431	N.pl3	1	LIG1	0.000	
32	 N60	-7.146	-1.040	-21.319	N.pl3	1	LIG1	0.000	
33	 N61	-8.726	1.220	-24.419	N.pl3	1	LIG1	0.000	
34	 C62	-6.152	3.729	-22.030	C.3	1	LIG1	0.000	
35	 C63	-7.997	2.296	-25.004	C.3	1	LIG1	0.000	
36	 C64	-8.138	-2.970	-24.287	C.3	1	LIG1	0.000	
37	 C65	-6.986	-2.263	-22.031	C.3	1	LIG1	0.000	
38	 C66	-8.114	-0.072	-24.334	C.3	1	LIG1	0.000	
39	 C67	-8.038	-2.270	-23.055	C.3	1	LIG1	0.000	
40	 C68	-8.644	-0.906	-23.124	C.3	1	LIG1	0.000	
@<TRIPOS>BOND
1 5 24 ar
2 2 6 2
3 3 7 2
4 7 35 1
5 4 8 2
6 8 32 1
7 5 9 ar
8 10 12 ar
9 10 11 ar
10 12 16 ar
11 13 14 ar
12 14 21 ar
13 11 15 ar
14 17 20 ar
15 18 19 ar
16 19 26 ar
17 1 20 1
18 13 20 ar
19 6 21 1
20 15 22 ar
21 16 22 ar
22 17 23 ar
23 21 23 ar
24 24 28 ar
25 18 25 ar
26 26 29 ar
27 9 27 ar
28 27 29 ar
29 25 28 ar
30 28 29 ar
31 7 30 1
32 22 31 1
33 27 32 1
34 32 37 1
35 6 33 1
36 33 38 1
37 30 34 1
38 33 35 1
39 31 36 1
40 37 39 1
41 38 40 1
42 36 39 1
43 8 40 1
44 23 40 1
45 39 40 1
@<TRIPOS>SUBSTRUCTURE
1	LIG1	1	GROUP	1 C	LIG
