# created with PyMOL 3.1.3.1
@<TRIPOS>MOLECULE
predicted
36 41 1                 
SMALL
USER_CHARGES
@<TRIPOS>ATOM
1	CL33	-13.357	-3.196	-22.047	Cl	1	LIG1	0.000	
2	 O31	-10.714	2.491	-24.399	O.2	1	LIG1	0.000	
3	 O32	-8.670	0.716	-21.467	O.2	1	LIG1	0.000	
4	 N34	-6.255	-0.516	-17.959	N.2	1	LIG1	0.000	
5	 O35	-6.371	6.735	-22.392	O.3	1	LIG1	0.000	
6	 C36	-10.193	1.374	-24.226	C.2	1	LIG1	0.000	
7	 C37	-8.261	-0.331	-21.952	C.2	1	LIG1	0.000	
8	 C38	-6.932	-0.941	-19.025	C.2	1	LIG1	0.000	
9	 C39	-13.061	-0.744	-23.132	C.2	1	LIG1	0.000	
10	 C40	-12.348	0.302	-23.627	C.2	1	LIG1	0.000	
11	 C41	-10.999	-1.947	-22.661	C.2	1	LIG1	0.000	
12	 C42	-2.979	1.563	-20.846	C.2	1	LIG1	0.000	
13	 C43	-3.658	1.112	-21.971	C.2	1	LIG1	0.000	
14	 C44	-12.403	-1.863	-22.636	C.2	1	LIG1	0.000	
15	 C45	-10.966	0.236	-23.681	C.2	1	LIG1	0.000	
16	 C46	-10.284	-0.923	-23.264	C.2	1	LIG1	0.000	
17	 C47	-5.118	0.175	-18.124	C.2	1	LIG1	0.000	
18	 C48	-3.459	1.248	-19.570	C.2	1	LIG1	0.000	
19	 C49	-4.792	0.378	-21.824	C.2	1	LIG1	0.000	
20	 C50	-6.498	-0.691	-20.335	C.2	1	LIG1	0.000	
21	 C51	-4.614	0.503	-19.396	C.2	1	LIG1	0.000	
22	 C52	-5.304	0.069	-20.551	C.2	1	LIG1	0.000	
23	 N53	-7.267	-1.080	-21.435	N.pl3	1	LIG1	0.000	
24	 N54	-8.820	1.238	-24.417	N.pl3	1	LIG1	0.000	
25	 C55	-5.251	5.759	-22.526	C.3	1	LIG1	0.000	
26	 C56	-7.244	6.601	-23.611	C.3	1	LIG1	0.000	
27	 C57	-8.026	2.355	-24.821	C.3	1	LIG1	0.000	
28	 C58	-8.135	-3.056	-24.450	C.3	1	LIG1	0.000	
29	 C59	-7.094	-2.295	-22.159	C.3	1	LIG1	0.000	
30	 C60	-8.229	-0.070	-24.431	C.3	1	LIG1	0.000	
31	 C61	-5.869	4.400	-22.433	C.3	1	LIG1	0.000	
32	 C62	-7.894	5.228	-23.584	C.3	1	LIG1	0.000	
33	 C63	-7.376	2.880	-23.517	C.3	1	LIG1	0.000	
34	 C64	-8.186	-2.305	-23.195	C.3	1	LIG1	0.000	
35	 C65	-8.783	-0.930	-23.252	C.3	1	LIG1	0.000	
36	 N66	-6.821	4.189	-23.604	N.3	1	LIG1	0.000	
@<TRIPOS>BOND
1 4 17 ar
2 5 26 1
3 2 6 2
4 6 15 1
5 3 7 2
6 7 35 1
7 4 8 ar
8 9 14 ar
9 9 10 ar
10 11 16 ar
11 12 13 ar
12 13 19 ar
13 1 14 1
14 11 14 ar
15 10 15 ar
16 15 16 ar
17 17 21 ar
18 12 18 ar
19 19 22 ar
20 8 20 ar
21 20 22 ar
22 18 21 ar
23 21 22 ar
24 7 23 1
25 20 23 1
26 6 24 1
27 24 27 1
28 5 25 1
29 26 32 1
30 27 33 1
31 28 34 1
32 23 29 1
33 24 30 1
34 25 31 1
35 33 36 1
36 29 34 1
37 34 35 1
38 16 35 1
39 30 35 1
40 31 36 1
41 32 36 1
@<TRIPOS>SUBSTRUCTURE
1	LIG1	1	GROUP	1 C	LIG
