# created with PyMOL 3.1.3.1
@<TRIPOS>MOLECULE
predicted
36 41 1                 
SMALL
USER_CHARGES
@<TRIPOS>ATOM
1	 O28	-10.974	2.147	-24.542	O.2	1	LIG1	0.000	
2	 O29	-6.139	2.107	-24.816	O.2	1	LIG1	0.000	
3	 O30	-8.808	0.500	-21.592	O.2	1	LIG1	0.000	
4	 N32	-6.348	-0.718	-18.057	N.2	1	LIG1	0.000	
5	 C33	-10.465	1.021	-24.344	C.2	1	LIG1	0.000	
6	 C34	-7.273	2.335	-24.512	C.2	1	LIG1	0.000	
7	 C35	-8.431	-0.577	-22.030	C.2	1	LIG1	0.000	
8	 C36	-7.050	-1.139	-19.104	C.2	1	LIG1	0.000	
9	 C37	-13.279	-0.947	-22.937	C.2	1	LIG1	0.000	
10	 C38	-12.582	0.050	-23.539	C.2	1	LIG1	0.000	
11	 C39	-11.223	-2.186	-22.518	C.2	1	LIG1	0.000	
12	 C40	-3.061	1.209	-20.976	C.2	1	LIG1	0.000	
13	 C41	-3.745	0.777	-22.089	C.2	1	LIG1	0.000	
14	 C42	-12.611	-2.072	-22.414	C.2	1	LIG1	0.000	
15	 C43	-11.197	-0.056	-23.661	C.2	1	LIG1	0.000	
16	 C44	-10.513	-1.205	-23.200	C.2	1	LIG1	0.000	
17	 C45	-5.202	-0.066	-18.234	C.2	1	LIG1	0.000	
18	 C46	-3.537	0.927	-19.702	C.2	1	LIG1	0.000	
19	 C47	-4.911	0.079	-21.942	C.2	1	LIG1	0.000	
20	 C48	-6.638	-0.905	-20.430	C.2	1	LIG1	0.000	
21	 C49	-4.716	0.231	-19.518	C.2	1	LIG1	0.000	
22	 C50	-5.426	-0.199	-20.661	C.2	1	LIG1	0.000	
23	 N51	-7.629	2.984	-23.379	N.pl3	1	LIG1	0.000	
24	 N52	-7.426	-1.310	-21.505	N.pl3	1	LIG1	0.000	
25	 N53	-9.134	0.820	-24.670	N.pl3	1	LIG1	0.000	
26	 C54	-8.393	1.838	-25.353	C.3	1	LIG1	0.000	
27	 C55	-6.641	3.621	-22.523	C.3	1	LIG1	0.000	
28	 C56	-5.826	6.012	-23.054	C.3	1	LIG1	0.000	
29	 C57	-5.934	5.846	-21.617	C.3	1	LIG1	0.000	
30	 C58	-6.906	5.162	-22.663	C.3	1	LIG1	0.000	
31	 C59	-8.424	-3.478	-24.336	C.3	1	LIG1	0.000	
32	 C60	-7.288	-2.558	-22.179	C.3	1	LIG1	0.000	
33	 C61	-8.512	-0.499	-24.550	C.3	1	LIG1	0.000	
34	 C62	-8.422	-2.629	-23.150	C.3	1	LIG1	0.000	
35	 C63	-9.026	-1.248	-23.267	C.3	1	LIG1	0.000	
36	 F31	-13.321	-3.043	-21.827	 F	1	LIG1	0.000	
@<TRIPOS>BOND
1 4 17 ar
2 1 5 2
3 5 15 1
4 2 6 2
5 6 23 1
6 3 7 2
7 7 35 1
8 4 8 ar
9 9 14 ar
10 9 10 ar
11 11 16 ar
12 12 13 ar
13 13 19 ar
14 11 14 ar
15 14 36 1
16 10 15 ar
17 15 16 ar
18 17 21 ar
19 12 18 ar
20 19 22 ar
21 8 20 ar
22 20 22 ar
23 18 21 ar
24 21 22 ar
25 23 27 1
26 7 24 1
27 20 24 1
28 5 25 1
29 25 26 1
30 6 26 1
31 27 30 1
32 28 29 1
33 28 30 1
34 29 30 1
35 31 34 1
36 24 32 1
37 25 33 1
38 32 34 1
39 34 35 1
40 16 35 1
41 33 35 1
@<TRIPOS>SUBSTRUCTURE
1	LIG1	1	GROUP	1 C	LIG
