# created with PyMOL 3.1.3.1
@<TRIPOS>MOLECULE
predicted
22 24 1                 
SMALL
USER_CHARGES
@<TRIPOS>ATOM
1	 O25	-8.389	0.455	-21.288	O.2	1	LIG1	0.000	
2	 N26	-6.021	-0.510	-17.883	N.2	1	LIG1	0.000	
3	 C27	-8.210	-0.611	-21.814	C.2	1	LIG1	0.000	
4	 C28	-6.689	-1.069	-18.905	C.2	1	LIG1	0.000	
5	 C29	-2.837	1.323	-20.890	C.2	1	LIG1	0.000	
6	 C30	-3.494	0.773	-21.948	C.2	1	LIG1	0.000	
7	 C31	-4.933	0.178	-18.070	C.2	1	LIG1	0.000	
8	 C32	-3.301	1.145	-19.595	C.2	1	LIG1	0.000	
9	 C33	-4.636	0.055	-21.774	C.2	1	LIG1	0.000	
10	 C34	-6.297	-0.916	-20.208	C.2	1	LIG1	0.000	
11	 C35	-4.444	0.404	-19.373	C.2	1	LIG1	0.000	
12	 C36	-5.133	-0.158	-20.491	C.2	1	LIG1	0.000	
13	 N37	-8.996	-0.966	-22.880	N.pl3	1	LIG1	0.000	
14	 C38	-7.121	-1.535	-21.285	C.3	1	LIG1	0.000	
15	 C39	-8.257	-2.881	-24.221	C.3	1	LIG1	0.000	
16	 C40	-9.409	1.121	-24.059	C.3	1	LIG1	0.000	
17	 C41	-12.988	-2.223	-23.148	C.3	1	LIG1	0.000	
18	 C42	-10.545	-2.772	-23.037	C.3	1	LIG1	0.000	
19	 C43	-11.302	-0.395	-23.152	C.3	1	LIG1	0.000	
20	 C44	-9.171	-2.346	-23.270	C.3	1	LIG1	0.000	
21	 C45	-9.939	-0.051	-23.477	C.3	1	LIG1	0.000	
22	 C46	-11.602	-1.806	-23.568	C.3	1	LIG1	0.000	
@<TRIPOS>BOND
1 2 7 ar
2 1 3 2
3 3 14 1
4 2 4 ar
5 5 6 ar
6 6 9 ar
7 7 11 ar
8 5 8 ar
9 9 12 ar
10 4 10 ar
11 10 12 ar
12 8 11 ar
13 11 12 ar
14 3 13 1
15 13 20 1
16 10 14 1
17 17 22 1
18 19 21 1
19 15 20 1
20 18 20 1
21 13 21 1
22 16 21 1
23 18 22 1
24 19 22 1
@<TRIPOS>SUBSTRUCTURE
1	LIG1	1	GROUP	1 C	LIG
