# created with PyMOL 3.1.3.1
@<TRIPOS>MOLECULE
predicted
35 40 1                 
SMALL
USER_CHARGES
@<TRIPOS>ATOM
1	 O24	-11.034	2.181	-24.557	O.2	1	LIG1	0.000	
2	 O25	-8.847	0.568	-21.547	O.2	1	LIG1	0.000	
3	 N27	-5.505	3.136	-23.873	N.2	1	LIG1	0.000	
4	 N28	-6.287	-0.538	-18.036	N.2	1	LIG1	0.000	
5	 O29	-6.200	2.502	-24.886	O.2	1	LIG1	0.000	
6	 C30	-10.500	1.062	-24.327	C.2	1	LIG1	0.000	
7	 C31	-8.433	-0.487	-21.981	C.2	1	LIG1	0.000	
8	 C32	-6.992	-0.968	-19.065	C.2	1	LIG1	0.000	
9	 C33	-6.378	3.635	-23.005	C.2	1	LIG1	0.000	
10	 C34	-7.455	2.551	-24.571	C.2	1	LIG1	0.000	
11	 C35	-7.634	3.263	-23.414	C.2	1	LIG1	0.000	
12	 C36	-13.277	-0.947	-22.895	C.2	1	LIG1	0.000	
13	 C37	-12.604	0.066	-23.510	C.2	1	LIG1	0.000	
14	 C38	-11.202	-2.139	-22.443	C.2	1	LIG1	0.000	
15	 C39	-2.955	1.217	-21.045	C.2	1	LIG1	0.000	
16	 C40	-3.667	0.758	-22.138	C.2	1	LIG1	0.000	
17	 C41	-12.592	-2.061	-22.350	C.2	1	LIG1	0.000	
18	 C42	-11.219	-0.008	-23.630	C.2	1	LIG1	0.000	
19	 C43	-10.511	-1.151	-23.155	C.2	1	LIG1	0.000	
20	 C44	-5.124	0.098	-18.243	C.2	1	LIG1	0.000	
21	 C45	-3.427	0.995	-19.757	C.2	1	LIG1	0.000	
22	 C46	-4.847	0.112	-21.957	C.2	1	LIG1	0.000	
23	 C47	-6.596	-0.773	-20.403	C.2	1	LIG1	0.000	
24	 C48	-4.626	0.337	-19.538	C.2	1	LIG1	0.000	
25	 C49	-5.356	-0.110	-20.655	C.2	1	LIG1	0.000	
26	 N50	-7.386	-1.196	-21.463	N.pl3	1	LIG1	0.000	
27	 N51	-9.173	0.864	-24.671	N.pl3	1	LIG1	0.000	
28	 C52	-5.957	4.452	-21.851	C.3	1	LIG1	0.000	
29	 C53	-8.505	1.872	-25.454	C.3	1	LIG1	0.000	
30	 C54	-8.371	-3.394	-24.273	C.3	1	LIG1	0.000	
31	 C55	-7.216	-2.448	-22.130	C.3	1	LIG1	0.000	
32	 C56	-8.515	-0.457	-24.507	C.3	1	LIG1	0.000	
33	 C57	-8.400	-2.562	-23.065	C.3	1	LIG1	0.000	
34	 C58	-9.014	-1.185	-23.213	C.3	1	LIG1	0.000	
35	 F26	-13.292	-3.016	-21.766	 F	1	LIG1	0.000	
@<TRIPOS>BOND
1 4 20 ar
2 3 5 ar
3 1 6 2
4 2 7 2
5 7 26 1
6 4 8 ar
7 3 9 ar
8 9 11 ar
9 5 10 ar
10 10 29 1
11 10 11 ar
12 12 13 ar
13 13 18 ar
14 14 17 ar
15 15 16 ar
16 16 22 ar
17 12 17 ar
18 17 35 1
19 6 18 1
20 14 19 ar
21 18 19 ar
22 20 24 ar
23 15 21 ar
24 22 25 ar
25 8 23 ar
26 23 25 ar
27 21 24 ar
28 24 25 ar
29 23 26 1
30 26 31 1
31 6 27 1
32 27 32 1
33 9 28 1
34 27 29 1
35 31 33 1
36 32 34 1
37 30 33 1
38 7 34 1
39 19 34 1
40 33 34 1
@<TRIPOS>SUBSTRUCTURE
1	LIG1	1	GROUP	1 C	LIG
