# created with PyMOL 3.1.3.1
@<TRIPOS>MOLECULE
predicted
24 26 1                 
SMALL
USER_CHARGES
@<TRIPOS>ATOM
1	 O18	8.652	0.857	20.776	O.2	1	LIG1	0.000	
2	 N22	6.082	0.099	17.232	N.2	1	LIG1	0.000	
3	 S23	7.564	0.595	24.210	S.3	1	LIG1	0.000	
4	 C24	8.416	-0.266	21.187	C.2	1	LIG1	0.000	
5	 C25	6.796	-0.509	18.183	C.2	1	LIG1	0.000	
6	 C26	3.083	1.845	20.467	C.2	1	LIG1	0.000	
7	 C27	3.798	1.271	21.463	C.2	1	LIG1	0.000	
8	 C28	5.007	0.767	17.518	C.2	1	LIG1	0.000	
9	 C29	3.464	1.692	19.166	C.2	1	LIG1	0.000	
10	 C30	4.914	0.542	21.194	C.2	1	LIG1	0.000	
11	 C31	6.492	-0.416	19.507	C.2	1	LIG1	0.000	
12	 C32	4.586	0.949	18.837	C.2	1	LIG1	0.000	
13	 C33	5.337	0.344	19.879	C.2	1	LIG1	0.000	
14	 N34	9.077	-0.817	22.315	N.pl3	1	LIG1	0.000	
15	 C35	7.364	-1.112	20.514	C.3	1	LIG1	0.000	
16	 C36	7.292	-1.416	24.684	C.3	1	LIG1	0.000	
17	 C37	8.864	-2.127	22.772	C.3	1	LIG1	0.000	
18	 C38	7.514	-2.311	23.420	C.3	1	LIG1	0.000	
19	 C39	11.420	-0.393	22.988	C.3	1	LIG1	0.000	
20	 C40	9.317	1.019	23.801	C.3	1	LIG1	0.000	
21	 C41	9.954	-0.042	23.176	C.3	1	LIG1	0.000	
22	 F19	12.168	0.055	23.959	 F	1	LIG1	0.000	
23	 F20	11.602	-1.698	22.900	 F	1	LIG1	0.000	
24	 F21	11.936	0.052	21.862	 F	1	LIG1	0.000	
@<TRIPOS>BOND
1 1 4 2
2 2 8 ar
3 3 20 1
4 4 14 1
5 4 15 1
6 2 5 ar
7 6 7 ar
8 7 10 ar
9 8 12 ar
10 6 9 ar
11 10 13 ar
12 5 11 ar
13 11 13 ar
14 9 12 ar
15 12 13 ar
16 14 17 1
17 14 21 1
18 11 15 1
19 3 16 1
20 17 18 1
21 16 18 1
22 19 22 1
23 19 23 1
24 19 24 1
25 20 21 1
26 19 21 1
@<TRIPOS>SUBSTRUCTURE
1	LIG1	1	GROUP	1 C	LIG
