# created with PyMOL 3.1.3.1
@<TRIPOS>MOLECULE
predicted
39 44 1                 
SMALL
USER_CHARGES
@<TRIPOS>ATOM
1	CL31	-13.025	-3.086	-22.040	Cl	1	LIG1	0.000	
2	 O28	-10.276	2.515	-24.331	O.2	1	LIG1	0.000	
3	 O29	-5.407	2.145	-24.407	O.2	1	LIG1	0.000	
4	 O30	-8.309	0.660	-21.426	O.2	1	LIG1	0.000	
5	 N32	-6.036	-0.594	-17.881	N.2	1	LIG1	0.000	
6	 C33	-9.776	1.379	-24.220	C.2	1	LIG1	0.000	
7	 C34	-6.462	2.610	-24.077	C.2	1	LIG1	0.000	
8	 C35	-7.911	-0.393	-21.908	C.2	1	LIG1	0.000	
9	 C36	-6.704	-1.013	-18.954	C.2	1	LIG1	0.000	
10	 C37	-8.464	-5.793	-27.165	C.2	1	LIG1	0.000	
11	 C38	-8.632	-6.009	-25.801	C.2	1	LIG1	0.000	
12	 C39	-7.846	-4.627	-27.615	C.2	1	LIG1	0.000	
13	 C40	-12.668	-0.694	-23.159	C.2	1	LIG1	0.000	
14	 C41	-11.937	0.331	-23.662	C.2	1	LIG1	0.000	
15	 C42	-8.162	-5.055	-24.875	C.2	1	LIG1	0.000	
16	 C43	-7.347	-3.700	-26.683	C.2	1	LIG1	0.000	
17	 C44	-10.632	-1.911	-22.661	C.2	1	LIG1	0.000	
18	 C45	-2.559	1.182	-20.730	C.2	1	LIG1	0.000	
19	 C46	-3.208	0.720	-21.864	C.2	1	LIG1	0.000	
20	 C47	-12.025	-1.821	-22.656	C.2	1	LIG1	0.000	
21	 C48	-10.553	0.252	-23.692	C.2	1	LIG1	0.000	
22	 C49	-7.529	-3.881	-25.307	C.2	1	LIG1	0.000	
23	 C50	-9.899	-0.916	-23.254	C.2	1	LIG1	0.000	
24	 C51	-4.853	0.027	-18.026	C.2	1	LIG1	0.000	
25	 C52	-3.097	0.963	-19.472	C.2	1	LIG1	0.000	
26	 C53	-4.400	0.055	-21.746	C.2	1	LIG1	0.000	
27	 C54	-6.204	-0.824	-20.247	C.2	1	LIG1	0.000	
28	 C55	-4.286	0.286	-19.312	C.2	1	LIG1	0.000	
29	 C56	-4.958	-0.154	-20.458	C.2	1	LIG1	0.000	
30	 N57	-6.628	3.277	-22.916	N.pl3	1	LIG1	0.000	
31	 N58	-6.955	-1.197	-21.357	N.pl3	1	LIG1	0.000	
32	 N59	-8.426	1.223	-24.432	N.pl3	1	LIG1	0.000	
33	 C60	-5.520	3.561	-22.064	C.3	1	LIG1	0.000	
34	 C61	-7.677	2.360	-24.894	C.3	1	LIG1	0.000	
35	 C62	-6.985	-2.842	-24.355	C.3	1	LIG1	0.000	
36	 C63	-6.826	-2.451	-22.062	C.3	1	LIG1	0.000	
37	 C64	-7.820	-0.102	-24.406	C.3	1	LIG1	0.000	
38	 C65	-7.835	-2.379	-23.249	C.3	1	LIG1	0.000	
39	 C66	-8.391	-0.967	-23.218	C.3	1	LIG1	0.000	
@<TRIPOS>BOND
1 5 24 ar
2 2 6 2
3 3 7 2
4 7 34 1
5 4 8 2
6 8 31 1
7 5 9 ar
8 10 12 ar
9 10 11 ar
10 12 16 ar
11 13 14 ar
12 14 21 ar
13 11 15 ar
14 17 20 ar
15 18 19 ar
16 19 26 ar
17 1 20 1
18 13 20 ar
19 6 21 1
20 15 22 ar
21 16 22 ar
22 17 23 ar
23 21 23 ar
24 24 28 ar
25 18 25 ar
26 26 29 ar
27 9 27 ar
28 27 29 ar
29 25 28 ar
30 28 29 ar
31 7 30 1
32 27 31 1
33 31 36 1
34 6 32 1
35 32 37 1
36 30 33 1
37 32 34 1
38 22 35 1
39 36 38 1
40 37 39 1
41 35 38 1
42 8 39 1
43 23 39 1
44 38 39 1
@<TRIPOS>SUBSTRUCTURE
1	LIG1	1	GROUP	1 C	LIG
