# created with PyMOL 3.1.3.1
@<TRIPOS>MOLECULE
predicted
38 44 1                 
SMALL
USER_CHARGES
@<TRIPOS>ATOM
1	CL35	13.503	-2.145	21.920	Cl	1	LIG1	0.000	
2	 O33	10.222	3.269	23.991	O.2	1	LIG1	0.000	
3	 O34	8.555	1.379	21.019	O.2	1	LIG1	0.000	
4	 N36	6.175	0.061	17.499	N.2	1	LIG1	0.000	
5	 O37	5.674	8.570	22.099	O.3	1	LIG1	0.000	
6	 C38	9.844	2.113	23.838	C.2	1	LIG1	0.000	
7	 C39	8.194	0.318	21.491	C.2	1	LIG1	0.000	
8	 C40	6.871	-0.321	18.557	C.2	1	LIG1	0.000	
9	 C41	12.938	0.249	22.936	C.2	1	LIG1	0.000	
10	 C42	12.107	1.253	23.363	C.2	1	LIG1	0.000	
11	 C43	11.032	-1.118	22.359	C.2	1	LIG1	0.000	
12	 C44	2.751	1.843	20.346	C.2	1	LIG1	0.000	
13	 C45	3.435	1.441	21.471	C.2	1	LIG1	0.000	
14	 C46	12.416	-0.924	22.433	C.2	1	LIG1	0.000	
15	 C47	10.745	1.063	23.347	C.2	1	LIG1	0.000	
16	 C48	10.197	-0.146	22.877	C.2	1	LIG1	0.000	
17	 C49	4.996	0.672	17.661	C.2	1	LIG1	0.000	
18	 C50	3.270	1.586	19.090	C.2	1	LIG1	0.000	
19	 C51	4.626	0.805	21.336	C.2	1	LIG1	0.000	
20	 C52	6.431	-0.096	19.863	C.2	1	LIG1	0.000	
21	 C53	4.474	0.942	18.936	C.2	1	LIG1	0.000	
22	 C54	5.181	0.554	20.073	C.2	1	LIG1	0.000	
23	 N55	7.210	-0.451	20.952	N.pl3	1	LIG1	0.000	
24	 N56	8.507	1.831	24.026	N.pl3	1	LIG1	0.000	
25	 C57	5.969	7.280	21.263	C.3	1	LIG1	0.000	
26	 C58	5.769	7.745	23.348	C.3	1	LIG1	0.000	
27	 C59	7.606	2.822	24.452	C.3	1	LIG1	0.000	
28	 C60	4.479	5.745	22.569	C.3	1	LIG1	0.000	
29	 C61	5.810	6.548	22.504	C.3	1	LIG1	0.000	
30	 C62	8.033	-2.494	23.879	C.3	1	LIG1	0.000	
31	 C63	7.096	-1.681	21.664	C.3	1	LIG1	0.000	
32	 C64	8.042	0.462	23.975	C.3	1	LIG1	0.000	
33	 C65	6.919	3.280	23.166	C.3	1	LIG1	0.000	
34	 C66	4.855	4.385	22.958	C.3	1	LIG1	0.000	
35	 C67	6.896	5.612	22.811	C.3	1	LIG1	0.000	
36	 C68	8.220	-1.684	22.660	C.3	1	LIG1	0.000	
37	 C69	8.704	-0.278	22.782	C.3	1	LIG1	0.000	
38	 N70	6.233	4.447	23.307	N.3	1	LIG1	0.000	
@<TRIPOS>BOND
1 4 17 ar
2 5 26 1
3 2 6 2
4 6 15 1
5 3 7 2
6 7 37 1
7 4 8 ar
8 9 14 ar
9 9 10 ar
10 11 16 ar
11 12 13 ar
12 13 19 ar
13 1 14 1
14 11 14 ar
15 10 15 ar
16 15 16 ar
17 17 21 ar
18 12 18 ar
19 19 22 ar
20 8 20 ar
21 20 22 ar
22 18 21 ar
23 21 22 ar
24 7 23 1
25 20 23 1
26 6 24 1
27 24 27 1
28 5 25 1
29 27 33 1
30 28 29 1
31 25 29 1
32 26 29 1
33 29 35 1
34 30 36 1
35 23 31 1
36 24 32 1
37 33 38 1
38 28 34 1
39 31 36 1
40 36 37 1
41 16 37 1
42 32 37 1
43 34 38 1
44 35 38 1
@<TRIPOS>SUBSTRUCTURE
1	LIG1	1	GROUP	1 C	LIG
