# created with PyMOL 3.1.3.1
@<TRIPOS>MOLECULE
predicted
41 46 1                 
SMALL
USER_CHARGES
@<TRIPOS>ATOM
1	CL33	-13.033	-2.589	-22.095	Cl	1	LIG1	0.000	
2	 O30	0.955	-0.464	-24.670	O.2	1	LIG1	0.000	
3	 O31	-4.822	-1.812	-25.105	O.2	1	LIG1	0.000	
4	 O32	-8.428	-0.008	-21.709	O.2	1	LIG1	0.000	
5	 N34	-6.177	-0.465	-17.977	N.2	1	LIG1	0.000	
6	 O35	3.774	-2.469	-25.245	O.3	1	LIG1	0.000	
7	 C36	1.644	-1.373	-25.193	C.2	1	LIG1	0.000	
8	 C37	-5.124	-1.915	-26.266	C.2	1	LIG1	0.000	
9	 C38	-7.759	-0.939	-22.135	C.2	1	LIG1	0.000	
10	 C39	-6.686	-0.980	-19.103	C.2	1	LIG1	0.000	
11	 C40	-12.005	-2.758	-24.524	C.2	1	LIG1	0.000	
12	 C41	-2.191	-1.219	-27.079	C.2	1	LIG1	0.000	
13	 C42	-2.389	-3.486	-26.384	C.2	1	LIG1	0.000	
14	 C43	-0.857	-1.221	-26.805	C.2	1	LIG1	0.000	
15	 C44	-1.032	-3.517	-26.086	C.2	1	LIG1	0.000	
16	 C45	-11.022	-2.679	-25.442	C.2	1	LIG1	0.000	
17	 C46	-10.471	-2.132	-22.835	C.2	1	LIG1	0.000	
18	 C47	-2.682	1.514	-20.499	C.2	1	LIG1	0.000	
19	 C48	-3.192	0.995	-21.681	C.2	1	LIG1	0.000	
20	 C49	-11.727	-2.469	-23.221	C.2	1	LIG1	0.000	
21	 C50	-2.928	-2.339	-26.838	C.2	1	LIG1	0.000	
22	 C51	-0.244	-2.368	-26.283	C.2	1	LIG1	0.000	
23	 C52	-9.716	-2.326	-25.068	C.2	1	LIG1	0.000	
24	 C53	-9.461	-1.998	-23.750	C.2	1	LIG1	0.000	
25	 C54	-5.076	0.245	-18.015	C.2	1	LIG1	0.000	
26	 C55	-3.296	1.277	-19.283	C.2	1	LIG1	0.000	
27	 C56	-4.322	0.242	-21.677	C.2	1	LIG1	0.000	
28	 C57	-6.112	-0.792	-20.347	C.2	1	LIG1	0.000	
29	 C58	-4.432	0.514	-19.239	C.2	1	LIG1	0.000	
30	 C59	-4.950	-0.010	-20.435	C.2	1	LIG1	0.000	
31	 N60	-4.285	-2.284	-27.112	N.pl3	1	LIG1	0.000	
32	 N61	-6.628	-1.393	-21.503	N.pl3	1	LIG1	0.000	
33	 N62	1.111	-2.338	-25.963	N.pl3	1	LIG1	0.000	
34	 C63	3.128	-1.311	-24.921	C.3	1	LIG1	0.000	
35	 C64	3.339	-3.267	-26.314	C.3	1	LIG1	0.000	
36	 C65	1.903	-3.382	-26.487	C.3	1	LIG1	0.000	
37	 C66	-6.513	-1.673	-26.696	C.3	1	LIG1	0.000	
38	 C67	-8.652	-2.221	-26.120	C.3	1	LIG1	0.000	
39	 C68	-7.327	-1.131	-24.524	C.3	1	LIG1	0.000	
40	 C69	-8.081	-1.683	-23.361	C.3	1	LIG1	0.000	
41	 N70	-7.376	-1.971	-25.617	N.3	1	LIG1	0.000	
@<TRIPOS>BOND
1 3 8 2
2 5 25 ar
3 6 34 1
4 2 7 2
5 8 31 1
6 8 37 1
7 4 9 2
8 9 32 1
9 5 10 ar
10 11 20 ar
11 12 14 ar
12 14 22 ar
13 13 15 ar
14 11 16 ar
15 17 24 ar
16 18 19 ar
17 19 27 ar
18 1 20 1
19 17 20 ar
20 12 21 ar
21 13 21 ar
22 15 22 ar
23 22 33 1
24 16 23 ar
25 23 24 ar
26 24 40 1
27 25 29 ar
28 18 26 ar
29 27 30 ar
30 10 28 ar
31 28 30 ar
32 26 29 ar
33 29 30 ar
34 21 31 1
35 28 32 1
36 7 33 1
37 33 36 1
38 7 34 1
39 6 35 1
40 35 36 1
41 37 41 1
42 23 38 1
43 9 40 1
44 39 40 1
45 38 41 1
46 39 41 1
@<TRIPOS>SUBSTRUCTURE
1	LIG1	1	GROUP	1 C	LIG
