# created with PyMOL 3.1.3.1
@<TRIPOS>MOLECULE
predicted
40 45 1                 
SMALL
USER_CHARGES
@<TRIPOS>ATOM
1	CL31	-13.250	-3.184	-21.743	Cl	1	LIG1	0.000	
2	 O28	-10.867	2.453	-24.307	O.2	1	LIG1	0.000	
3	 O29	-6.021	2.433	-24.406	O.2	1	LIG1	0.000	
4	 O30	-8.649	0.766	-21.407	O.2	1	LIG1	0.000	
5	 N32	-7.025	-6.219	-27.488	N.2	1	LIG1	0.000	
6	 N33	-6.248	-0.582	-17.906	N.2	1	LIG1	0.000	
7	 S34	-8.957	-4.964	-26.675	S.2	1	LIG1	0.000	
8	 C35	-10.305	1.355	-24.157	C.2	1	LIG1	0.000	
9	 C36	-7.120	2.726	-24.123	C.2	1	LIG1	0.000	
10	 C37	-8.263	-0.286	-21.889	C.2	1	LIG1	0.000	
11	 C38	-8.289	-5.961	-27.781	C.2	1	LIG1	0.000	
12	 C39	-6.942	-0.980	-18.971	C.2	1	LIG1	0.000	
13	 C40	-6.641	-5.575	-26.358	C.2	1	LIG1	0.000	
14	 C41	-7.581	-4.787	-25.766	C.2	1	LIG1	0.000	
15	 C42	-13.060	-0.788	-22.891	C.2	1	LIG1	0.000	
16	 C43	-12.392	0.257	-23.443	C.2	1	LIG1	0.000	
17	 C44	-10.968	-1.938	-22.487	C.2	1	LIG1	0.000	
18	 C45	-2.956	1.417	-20.797	C.2	1	LIG1	0.000	
19	 C46	-3.638	1.000	-21.927	C.2	1	LIG1	0.000	
20	 C47	-12.346	-1.893	-22.404	C.2	1	LIG1	0.000	
21	 C48	-11.012	0.228	-23.551	C.2	1	LIG1	0.000	
22	 C49	-10.303	-0.911	-23.125	C.2	1	LIG1	0.000	
23	 C50	-5.102	0.080	-18.082	C.2	1	LIG1	0.000	
24	 C51	-3.434	1.115	-19.523	C.2	1	LIG1	0.000	
25	 C52	-4.797	0.303	-21.789	C.2	1	LIG1	0.000	
26	 C53	-6.506	-0.717	-20.285	C.2	1	LIG1	0.000	
27	 C54	-4.596	0.409	-19.363	C.2	1	LIG1	0.000	
28	 C55	-5.289	0.006	-20.510	C.2	1	LIG1	0.000	
29	 N56	-7.421	3.328	-22.953	N.pl3	1	LIG1	0.000	
30	 N57	-7.438	-4.032	-24.637	N.pl3	1	LIG1	0.000	
31	 N58	-7.281	-1.065	-21.374	N.pl3	1	LIG1	0.000	
32	 N59	-8.967	1.228	-24.440	N.pl3	1	LIG1	0.000	
33	 C60	-5.277	-5.683	-25.825	C.3	1	LIG1	0.000	
34	 C61	-6.406	3.748	-22.047	C.3	1	LIG1	0.000	
35	 C62	-8.268	2.338	-25.013	C.3	1	LIG1	0.000	
36	 C63	-8.407	-3.033	-24.293	C.3	1	LIG1	0.000	
37	 C64	-7.162	-2.291	-22.088	C.3	1	LIG1	0.000	
38	 C65	-8.328	-0.055	-24.387	C.3	1	LIG1	0.000	
39	 C66	-8.166	-2.260	-23.140	C.3	1	LIG1	0.000	
40	 C67	-8.804	-0.904	-23.166	C.3	1	LIG1	0.000	
@<TRIPOS>BOND
1 5 13 ar
2 6 23 ar
3 7 11 ar
4 2 8 2
5 3 9 2
6 9 35 1
7 4 10 2
8 10 31 1
9 5 11 ar
10 6 12 ar
11 13 33 1
12 7 14 ar
13 13 14 ar
14 15 16 ar
15 16 21 ar
16 17 20 ar
17 18 19 ar
18 19 25 ar
19 1 20 1
20 15 20 ar
21 8 21 1
22 17 22 ar
23 21 22 ar
24 23 27 ar
25 18 24 ar
26 25 28 ar
27 12 26 ar
28 26 28 ar
29 24 27 ar
30 27 28 ar
31 9 29 1
32 14 30 1
33 26 31 1
34 31 37 1
35 8 32 1
36 32 38 1
37 29 34 1
38 32 35 1
39 30 36 1
40 37 39 1
41 38 40 1
42 36 39 1
43 10 40 1
44 22 40 1
45 39 40 1
@<TRIPOS>SUBSTRUCTURE
1	LIG1	1	GROUP	1 C	LIG
