# created with PyMOL 3.1.3.1
@<TRIPOS>MOLECULE
predicted
36 40 1                 
SMALL
USER_CHARGES
@<TRIPOS>ATOM
1	CL32	12.962	-1.475	20.880	Cl	1	LIG1	0.000	
2	 O30	8.341	1.120	20.613	O.2	1	LIG1	0.000	
3	 O31	6.277	-6.274	21.963	O.2	1	LIG1	0.000	
4	 N33	6.047	0.070	17.095	N.2	1	LIG1	0.000	
5	 C34	7.755	0.216	21.218	C.2	1	LIG1	0.000	
6	 C35	6.248	-5.140	22.211	C.2	1	LIG1	0.000	
7	 C36	6.599	-0.434	18.188	C.2	1	LIG1	0.000	
8	 C37	12.179	-0.446	24.566	C.2	1	LIG1	0.000	
9	 C38	5.210	-1.449	24.473	C.2	1	LIG1	0.000	
10	 C39	12.812	-0.931	23.449	C.2	1	LIG1	0.000	
11	 C40	6.063	-0.513	23.913	C.2	1	LIG1	0.000	
12	 C41	10.899	0.114	24.434	C.2	1	LIG1	0.000	
13	 C42	10.928	-0.250	22.146	C.2	1	LIG1	0.000	
14	 C43	5.466	-2.802	24.359	C.2	1	LIG1	0.000	
15	 C44	2.688	2.177	19.689	C.2	1	LIG1	0.000	
16	 C45	3.250	1.707	20.841	C.2	1	LIG1	0.000	
17	 C46	12.183	-0.839	22.259	C.2	1	LIG1	0.000	
18	 C47	7.195	-0.940	23.259	C.2	1	LIG1	0.000	
19	 C48	10.289	0.265	23.237	C.2	1	LIG1	0.000	
20	 C49	7.516	-2.297	23.225	C.2	1	LIG1	0.000	
21	 C50	6.587	-3.232	23.667	C.2	1	LIG1	0.000	
22	 C51	4.968	0.775	17.175	C.2	1	LIG1	0.000	
23	 C52	3.246	1.887	18.484	C.2	1	LIG1	0.000	
24	 C53	4.387	0.924	20.815	C.2	1	LIG1	0.000	
25	 C54	6.118	-0.178	19.440	C.2	1	LIG1	0.000	
26	 C55	4.379	1.098	18.404	C.2	1	LIG1	0.000	
27	 C56	4.966	0.607	19.571	C.2	1	LIG1	0.000	
28	 N57	7.958	0.036	22.533	N.pl3	1	LIG1	0.000	
29	 C58	6.810	-0.750	20.598	C.3	1	LIG1	0.000	
30	 C59	8.890	0.905	23.185	C.3	1	LIG1	0.000	
31	 C60	6.278	-4.208	19.893	C.3	1	LIG1	0.000	
32	 C61	5.532	-4.247	21.234	C.3	1	LIG1	0.000	
33	 C62	8.732	-2.890	22.712	C.3	1	LIG1	0.000	
34	 C63	9.176	-4.097	23.308	C.3	1	LIG1	0.000	
35	 C64	8.056	-5.069	23.798	C.3	1	LIG1	0.000	
36	 N65	6.846	-4.576	23.296	N.pl3	1	LIG1	0.000	
@<TRIPOS>BOND
1 4 22 ar
2 2 5 2
3 5 29 1
4 3 6 2
5 6 36 1
6 4 7 ar
7 8 10 ar
8 9 14 ar
9 10 17 ar
10 9 11 ar
11 8 12 ar
12 14 21 ar
13 15 16 ar
14 16 24 ar
15 1 17 1
16 13 17 ar
17 11 18 ar
18 18 28 1
19 12 19 ar
20 13 19 ar
21 18 20 ar
22 20 21 ar
23 22 26 ar
24 15 23 ar
25 24 27 ar
26 7 25 ar
27 25 27 ar
28 23 26 ar
29 26 27 ar
30 5 28 1
31 28 30 1
32 25 29 1
33 19 30 1
34 31 32 1
35 6 32 1
36 20 33 1
37 33 34 1
38 34 35 1
39 21 36 1
40 35 36 1
@<TRIPOS>SUBSTRUCTURE
1	LIG1	1	GROUP	1 C	LIG
