# created with PyMOL 3.1.3.1
@<TRIPOS>MOLECULE
predicted
28 29 1                 
SMALL
USER_CHARGES
@<TRIPOS>ATOM
1	CL24	-13.198	-2.854	-22.488	Cl	1	LIG1	0.000	
2	 O19	-7.384	-0.029	-21.373	O.2	1	LIG1	0.000	
3	 O20	-4.423	0.422	-19.389	O.2	1	LIG1	0.000	
4	 O21	-5.332	0.406	-17.061	O.2	1	LIG1	0.000	
5	 O22	-12.842	6.642	-23.993	O.2	1	LIG1	0.000	
6	 O23	-11.372	6.425	-25.940	O.2	1	LIG1	0.000	
7	 O25	-6.682	-0.526	-18.855	O.3	1	LIG1	0.000	
8	 C26	-7.389	-1.172	-21.009	C.2	1	LIG1	0.000	
9	 C27	-10.066	2.490	-24.132	C.2	1	LIG1	0.000	
10	 C28	-12.391	2.382	-23.525	C.2	1	LIG1	0.000	
11	 C29	-12.090	-0.466	-23.158	C.2	1	LIG1	0.000	
12	 C30	-10.637	-2.313	-22.813	C.2	1	LIG1	0.000	
13	 C31	-9.798	-0.183	-23.431	C.2	1	LIG1	0.000	
14	 C32	-10.206	3.840	-24.382	C.2	1	LIG1	0.000	
15	 C33	-12.503	3.744	-23.777	C.2	1	LIG1	0.000	
16	 C34	-11.885	-1.805	-22.834	C.2	1	LIG1	0.000	
17	 C35	-11.184	1.759	-23.720	C.2	1	LIG1	0.000	
18	 C36	-11.024	0.347	-23.428	C.2	1	LIG1	0.000	
19	 C37	-9.596	-1.503	-23.137	C.2	1	LIG1	0.000	
20	 C38	-11.407	4.468	-24.204	C.2	1	LIG1	0.000	
21	 N39	-7.774	-2.215	-21.760	N.pl3	1	LIG1	0.000	
22	 N40	-4.540	-1.768	-18.078	N.3	1	LIG1	0.000	
23	 N41	-10.407	6.887	-23.723	N.3	1	LIG1	0.000	
24	 C42	-6.941	-1.644	-19.632	C.3	1	LIG1	0.000	
25	 C43	-8.045	-3.297	-23.967	C.3	1	LIG1	0.000	
26	 C44	-8.173	-2.011	-23.148	C.3	1	LIG1	0.000	
27	 S45	-5.196	-0.318	-18.324	S.3	1	LIG1	0.000	
28	 S46	-11.568	6.183	-24.520	S.O2	1	LIG1	0.000	
@<TRIPOS>BOND
1 7 27 1
2 2 8 2
3 8 24 1
4 9 14 ar
5 11 18 ar
6 12 16 ar
7 14 20 ar
8 10 15 ar
9 1 16 1
10 11 16 ar
11 9 17 ar
12 10 17 ar
13 13 18 ar
14 17 18 1
15 12 19 ar
16 13 19 ar
17 15 20 ar
18 20 28 1
19 8 21 1
20 7 24 1
21 25 26 1
22 19 26 1
23 21 26 1
24 3 27 2
25 4 27 2
26 22 27 1
27 5 28 2
28 6 28 2
29 23 28 1
@<TRIPOS>SUBSTRUCTURE
1	LIG1	1	GROUP	1 C	LIG
