# created with PyMOL 3.1.3.1
@<TRIPOS>MOLECULE
predicted
37 41 1                 
SMALL
USER_CHARGES
@<TRIPOS>ATOM
1	CL33	-13.222	-3.216	-21.781	Cl	1	LIG1	0.000	
2	 O30	-10.646	2.301	-24.485	O.2	1	LIG1	0.000	
3	 O31	-5.844	2.504	-24.551	O.2	1	LIG1	0.000	
4	 O32	-8.538	0.621	-21.498	O.2	1	LIG1	0.000	
5	 N34	-6.147	-0.690	-17.953	N.2	1	LIG1	0.000	
6	 O35	-7.871	-4.574	-24.213	O.3	1	LIG1	0.000	
7	 C36	-10.114	1.174	-24.296	C.2	1	LIG1	0.000	
8	 C37	-6.977	2.604	-24.261	C.2	1	LIG1	0.000	
9	 C38	-8.137	-0.447	-21.962	C.2	1	LIG1	0.000	
10	 C39	-6.815	-1.094	-19.023	C.2	1	LIG1	0.000	
11	 C40	-12.947	-0.848	-23.012	C.2	1	LIG1	0.000	
12	 C41	-12.243	0.161	-23.578	C.2	1	LIG1	0.000	
13	 C42	-10.893	-2.047	-22.531	C.2	1	LIG1	0.000	
14	 C43	-2.837	1.350	-20.792	C.2	1	LIG1	0.000	
15	 C44	-3.505	0.922	-21.924	C.2	1	LIG1	0.000	
16	 C45	-12.274	-1.959	-22.468	C.2	1	LIG1	0.000	
17	 C46	-10.866	0.085	-23.666	C.2	1	LIG1	0.000	
18	 C47	-10.183	-1.067	-23.202	C.2	1	LIG1	0.000	
19	 C48	-5.001	-0.014	-18.101	C.2	1	LIG1	0.000	
20	 C49	-3.325	1.042	-19.519	C.2	1	LIG1	0.000	
21	 C50	-4.649	0.203	-21.817	C.2	1	LIG1	0.000	
22	 C51	-6.366	-0.832	-20.325	C.2	1	LIG1	0.000	
23	 C52	-4.481	0.313	-19.374	C.2	1	LIG1	0.000	
24	 C53	-5.166	-0.106	-20.547	C.2	1	LIG1	0.000	
25	 N54	-7.338	3.099	-23.080	N.pl3	1	LIG1	0.000	
26	 N55	-7.140	-1.209	-21.417	N.pl3	1	LIG1	0.000	
27	 N56	-8.758	1.010	-24.579	N.pl3	1	LIG1	0.000	
28	 C57	-6.391	3.635	-22.161	C.3	1	LIG1	0.000	
29	 C58	-8.034	2.095	-25.197	C.3	1	LIG1	0.000	
30	 C59	-8.422	-5.123	-26.568	C.3	1	LIG1	0.000	
31	 C60	-7.685	-6.820	-24.833	C.3	1	LIG1	0.000	
32	 C61	-7.962	-5.466	-25.244	C.3	1	LIG1	0.000	
33	 C62	-8.132	-3.264	-24.367	C.3	1	LIG1	0.000	
34	 C63	-7.004	-2.447	-22.127	C.3	1	LIG1	0.000	
35	 C64	-8.145	-0.302	-24.480	C.3	1	LIG1	0.000	
36	 C65	-8.088	-2.470	-23.138	C.3	1	LIG1	0.000	
37	 C66	-8.669	-1.095	-23.223	C.3	1	LIG1	0.000	
@<TRIPOS>BOND
1 5 19 ar
2 6 32 1
3 2 7 2
4 3 8 2
5 8 29 1
6 4 9 2
7 9 26 1
8 5 10 ar
9 11 12 ar
10 12 17 ar
11 13 16 ar
12 14 15 ar
13 15 21 ar
14 1 16 1
15 11 16 ar
16 7 17 1
17 13 18 ar
18 17 18 ar
19 19 23 ar
20 14 20 ar
21 21 24 ar
22 10 22 ar
23 22 24 ar
24 20 23 ar
25 23 24 ar
26 8 25 1
27 22 26 1
28 26 34 1
29 7 27 1
30 27 35 1
31 25 28 1
32 27 29 1
33 30 32 1
34 31 32 1
35 6 33 1
36 34 36 1
37 35 37 1
38 33 36 1
39 9 37 1
40 18 37 1
41 36 37 1
@<TRIPOS>SUBSTRUCTURE
1	LIG1	1	GROUP	1 C	LIG
