# created with PyMOL 3.1.3.1
@<TRIPOS>MOLECULE
predicted
26 30 1                 
SMALL
USER_CHARGES
@<TRIPOS>ATOM
1	 O15	-8.014	-3.228	-23.079	O.2	1	LIG1	0.000	
2	 O16	-8.080	0.983	-21.620	O.2	1	LIG1	0.000	
3	 N17	-6.208	-0.530	-17.847	N.2	1	LIG1	0.000	
4	 N18	-10.635	0.658	-24.810	N.2	1	LIG1	0.000	
5	 O19	-3.832	0.536	-20.936	O.3	1	LIG1	0.000	
6	 C20	-7.616	-2.221	-22.662	C.2	1	LIG1	0.000	
7	 C21	-7.644	-0.115	-21.939	C.2	1	LIG1	0.000	
8	 C22	-5.043	0.042	-17.642	C.2	1	LIG1	0.000	
9	 C23	-6.661	-0.785	-19.095	C.2	1	LIG1	0.000	
10	 C24	-9.572	0.319	-24.213	C.2	1	LIG1	0.000	
11	 C25	-4.229	0.424	-18.682	C.2	1	LIG1	0.000	
12	 C26	-13.103	-2.718	-22.513	C.2	1	LIG1	0.000	
13	 C27	-11.995	-3.098	-21.835	C.2	1	LIG1	0.000	
14	 C28	-4.674	0.171	-19.949	C.2	1	LIG1	0.000	
15	 C29	-5.886	-0.455	-20.232	C.2	1	LIG1	0.000	
16	 C30	-11.826	-0.010	-24.564	C.2	1	LIG1	0.000	
17	 C31	-13.072	-1.684	-23.419	C.2	1	LIG1	0.000	
18	 C32	-10.798	-2.452	-22.066	C.2	1	LIG1	0.000	
19	 C33	-9.552	-0.735	-23.289	C.2	1	LIG1	0.000	
20	 C34	-11.878	-1.036	-23.647	C.2	1	LIG1	0.000	
21	 C35	-10.728	-1.418	-22.995	C.2	1	LIG1	0.000	
22	 N36	-8.332	-1.017	-22.660	N.pl3	1	LIG1	0.000	
23	 N37	-6.479	-2.077	-21.982	N.pl3	1	LIG1	0.000	
24	 C38	-4.339	0.741	-22.230	C.3	1	LIG1	0.000	
25	 C39	-5.317	-0.166	-22.651	C.3	1	LIG1	0.000	
26	 C40	-6.331	-0.698	-21.625	C.3	1	LIG1	0.000	
@<TRIPOS>BOND
1 1 6 2
2 3 9 ar
3 4 16 ar
4 5 14 1
5 6 22 1
6 6 23 1
7 2 7 2
8 7 22 1
9 3 8 ar
10 9 15 ar
11 4 10 ar
12 8 11 ar
13 12 13 ar
14 13 18 ar
15 11 14 ar
16 14 15 ar
17 16 20 ar
18 12 17 ar
19 18 21 ar
20 10 19 ar
21 19 21 ar
22 17 20 ar
23 20 21 ar
24 19 22 1
25 23 26 1
26 5 24 1
27 24 25 1
28 7 26 1
29 15 26 1
30 25 26 1
@<TRIPOS>SUBSTRUCTURE
1	LIG1	1	GROUP	1 C	LIG
