# created with PyMOL 3.1.3.1
@<TRIPOS>MOLECULE
predicted
40 45 1                 
SMALL
USER_CHARGES
@<TRIPOS>ATOM
1	CL32	-13.844	-3.728	-22.225	Cl	1	LIG1	0.000	
2	 O29	-10.864	1.923	-24.120	O.2	1	LIG1	0.000	
3	 O30	-6.086	1.716	-23.971	O.2	1	LIG1	0.000	
4	 O31	-9.064	0.092	-21.194	O.2	1	LIG1	0.000	
5	 N33	-6.638	-1.087	-17.659	N.2	1	LIG1	0.000	
6	 N34	-8.639	-6.762	-27.238	N.2	1	LIG1	0.000	
7	 C35	-10.401	0.798	-24.003	C.2	1	LIG1	0.000	
8	 C36	-7.191	2.117	-23.799	C.2	1	LIG1	0.000	
9	 C37	-8.658	-0.963	-21.652	C.2	1	LIG1	0.000	
10	 C38	-8.137	-5.707	-26.518	C.2	1	LIG1	0.000	
11	 C39	-7.325	-1.547	-18.704	C.2	1	LIG1	0.000	
12	 C40	-13.363	-1.294	-23.181	C.2	1	LIG1	0.000	
13	 C41	-12.594	-0.247	-23.572	C.2	1	LIG1	0.000	
14	 C42	-11.400	-2.536	-22.592	C.2	1	LIG1	0.000	
15	 C43	-3.284	0.655	-20.631	C.2	1	LIG1	0.000	
16	 C44	-3.971	0.179	-21.731	C.2	1	LIG1	0.000	
17	 C45	-12.781	-2.433	-22.689	C.2	1	LIG1	0.000	
18	 C46	-11.224	-0.329	-23.543	C.2	1	LIG1	0.000	
19	 C47	-8.529	-5.847	-25.233	C.2	1	LIG1	0.000	
20	 C48	-10.602	-1.508	-23.074	C.2	1	LIG1	0.000	
21	 C49	-5.481	-0.467	-17.868	C.2	1	LIG1	0.000	
22	 C50	-3.777	0.445	-19.352	C.2	1	LIG1	0.000	
23	 C51	-5.142	-0.473	-21.556	C.2	1	LIG1	0.000	
24	 C52	-6.904	-1.327	-20.018	C.2	1	LIG1	0.000	
25	 C53	-9.263	-7.003	-25.169	C.2	1	LIG1	0.000	
26	 C54	-4.958	-0.219	-19.154	C.2	1	LIG1	0.000	
27	 C55	-5.665	-0.672	-20.270	C.2	1	LIG1	0.000	
28	 N56	-7.500	2.878	-22.750	N.pl3	1	LIG1	0.000	
29	 N57	-8.205	-5.025	-24.130	N.pl3	1	LIG1	0.000	
30	 N58	-7.674	-1.731	-21.102	N.pl3	1	LIG1	0.000	
31	 N59	-9.046	0.594	-24.212	N.pl3	1	LIG1	0.000	
32	 N60	-9.302	-7.510	-26.409	N.2	1	LIG1	0.000	
33	 C61	-6.509	3.361	-21.842	C.3	1	LIG1	0.000	
34	 C62	-8.270	1.698	-24.700	C.3	1	LIG1	0.000	
35	 C63	-9.920	-8.716	-26.859	C.3	1	LIG1	0.000	
36	 C64	-8.515	-3.653	-24.131	C.3	1	LIG1	0.000	
37	 C65	-7.525	-2.965	-21.790	C.3	1	LIG1	0.000	
38	 C66	-8.474	-0.735	-24.131	C.3	1	LIG1	0.000	
39	 C67	-8.565	-2.956	-22.858	C.3	1	LIG1	0.000	
40	 C68	-9.106	-1.566	-22.958	C.3	1	LIG1	0.000	
@<TRIPOS>BOND
1 5 21 ar
2 6 32 ar
3 2 7 2
4 3 8 2
5 8 34 1
6 4 9 2
7 9 30 1
8 6 10 ar
9 5 11 ar
10 12 13 ar
11 13 18 ar
12 14 17 ar
13 15 16 ar
14 16 23 ar
15 1 17 1
16 12 17 ar
17 7 18 1
18 10 19 ar
19 19 25 ar
20 14 20 ar
21 18 20 ar
22 21 26 ar
23 15 22 ar
24 23 27 ar
25 11 24 ar
26 24 27 ar
27 22 26 ar
28 26 27 ar
29 8 28 1
30 19 29 1
31 24 30 1
32 30 37 1
33 7 31 1
34 31 38 1
35 25 32 ar
36 32 35 1
37 28 33 1
38 31 34 1
39 29 36 1
40 37 39 1
41 38 40 1
42 36 39 1
43 9 40 1
44 20 40 1
45 39 40 1
@<TRIPOS>SUBSTRUCTURE
1	LIG1	1	GROUP	1 C	LIG
