# created with PyMOL 3.1.3.1
@<TRIPOS>MOLECULE
predicted
38 42 1                 
SMALL
USER_CHARGES
@<TRIPOS>ATOM
1	CL32	-13.062	-3.052	-21.919	Cl	1	LIG1	0.000	
2	 O27	-10.180	2.455	-24.335	O.2	1	LIG1	0.000	
3	 O28	-5.408	2.636	-24.345	O.2	1	LIG1	0.000	
4	 O29	-8.267	0.644	-21.454	O.2	1	LIG1	0.000	
5	 O30	-7.017	-5.401	-23.019	O.2	1	LIG1	0.000	
6	 O31	-5.703	-4.545	-24.843	O.2	1	LIG1	0.000	
7	 N33	-5.990	-0.616	-17.891	N.2	1	LIG1	0.000	
8	 C34	-9.703	1.304	-24.192	C.2	1	LIG1	0.000	
9	 C35	-6.521	2.648	-24.043	C.2	1	LIG1	0.000	
10	 C36	-7.879	-0.423	-21.908	C.2	1	LIG1	0.000	
11	 C37	-6.648	-1.032	-18.964	C.2	1	LIG1	0.000	
12	 C38	-12.650	-0.652	-23.054	C.2	1	LIG1	0.000	
13	 C39	-11.891	0.354	-23.562	C.2	1	LIG1	0.000	
14	 C40	-10.656	-1.961	-22.595	C.2	1	LIG1	0.000	
15	 C41	-2.549	1.185	-20.727	C.2	1	LIG1	0.000	
16	 C42	-3.202	0.735	-21.857	C.2	1	LIG1	0.000	
17	 C43	-12.036	-1.809	-22.551	C.2	1	LIG1	0.000	
18	 C44	-10.510	0.224	-23.620	C.2	1	LIG1	0.000	
19	 C45	-9.888	-0.980	-23.194	C.2	1	LIG1	0.000	
20	 C46	-4.825	0.016	-18.044	C.2	1	LIG1	0.000	
21	 C47	-3.084	0.948	-19.464	C.2	1	LIG1	0.000	
22	 C48	-4.373	0.074	-21.737	C.2	1	LIG1	0.000	
23	 C49	-6.164	-0.824	-20.265	C.2	1	LIG1	0.000	
24	 C50	-4.272	0.276	-19.315	C.2	1	LIG1	0.000	
25	 C51	-4.934	-0.157	-20.466	C.2	1	LIG1	0.000	
26	 N52	-6.817	3.065	-22.832	N.pl3	1	LIG1	0.000	
27	 N53	-6.916	-1.213	-21.364	N.pl3	1	LIG1	0.000	
28	 N54	-8.354	1.073	-24.458	N.pl3	1	LIG1	0.000	
29	 N55	-7.888	-5.875	-25.332	N.3	1	LIG1	0.000	
30	 C56	-5.817	3.571	-21.926	C.3	1	LIG1	0.000	
31	 C57	-8.180	-5.539	-26.668	C.3	1	LIG1	0.000	
32	 C58	-7.578	2.148	-25.022	C.3	1	LIG1	0.000	
33	 C59	-6.788	-2.445	-22.052	C.3	1	LIG1	0.000	
34	 C60	-7.802	-0.266	-24.405	C.3	1	LIG1	0.000	
35	 C61	-7.952	-3.253	-24.322	C.3	1	LIG1	0.000	
36	 C62	-7.820	-2.451	-23.103	C.3	1	LIG1	0.000	
37	 C63	-8.383	-1.062	-23.185	C.3	1	LIG1	0.000	
38	 S64	-7.084	-4.802	-24.363	S.O2	1	LIG1	0.000	
@<TRIPOS>BOND
1 7 20 ar
2 2 8 2
3 3 9 2
4 9 32 1
5 4 10 2
6 10 27 1
7 7 11 ar
8 12 13 ar
9 13 18 ar
10 14 17 ar
11 15 16 ar
12 16 22 ar
13 1 17 1
14 12 17 ar
15 8 18 1
16 14 19 ar
17 18 19 ar
18 20 24 ar
19 15 21 ar
20 22 25 ar
21 11 23 ar
22 23 25 ar
23 21 24 ar
24 24 25 ar
25 9 26 1
26 23 27 1
27 27 33 1
28 8 28 1
29 28 34 1
30 29 31 1
31 26 30 1
32 28 32 1
33 33 36 1
34 34 37 1
35 35 38 1
36 35 36 1
37 10 37 1
38 19 37 1
39 36 37 1
40 5 38 2
41 6 38 2
42 29 38 1
@<TRIPOS>SUBSTRUCTURE
1	LIG1	1	GROUP	1 C	LIG
