# created with PyMOL 3.1.3.1
@<TRIPOS>MOLECULE
predicted
28 31 1                 
SMALL
USER_CHARGES
@<TRIPOS>ATOM
1	 O27	8.486	1.163	20.543	O.2	1	LIG1	0.000	
2	 N28	5.996	0.036	17.294	N.2	1	LIG1	0.000	
3	 O29	7.401	0.890	24.261	O.3	1	LIG1	0.000	
4	 C30	8.357	0.134	21.108	C.2	1	LIG1	0.000	
5	 C31	6.763	-0.470	18.274	C.2	1	LIG1	0.000	
6	 C32	7.643	4.427	23.405	C.2	1	LIG1	0.000	
7	 C33	8.884	4.481	22.743	C.2	1	LIG1	0.000	
8	 C34	7.147	3.243	23.895	C.2	1	LIG1	0.000	
9	 C35	9.599	3.317	22.611	C.2	1	LIG1	0.000	
10	 C36	2.934	1.758	20.493	C.2	1	LIG1	0.000	
11	 C37	3.705	1.272	21.511	C.2	1	LIG1	0.000	
12	 C38	7.876	2.083	23.762	C.2	1	LIG1	0.000	
13	 C39	9.134	2.130	23.143	C.2	1	LIG1	0.000	
14	 C40	4.877	0.654	17.554	C.2	1	LIG1	0.000	
15	 C41	3.303	1.564	19.176	C.2	1	LIG1	0.000	
16	 C42	4.856	0.587	21.260	C.2	1	LIG1	0.000	
17	 C43	6.450	-0.336	19.619	C.2	1	LIG1	0.000	
18	 C44	4.472	0.869	18.878	C.2	1	LIG1	0.000	
19	 C45	5.267	0.371	19.931	C.2	1	LIG1	0.000	
20	 N46	9.166	-0.114	22.229	N.pl3	1	LIG1	0.000	
21	 C47	6.146	0.825	24.851	C.3	1	LIG1	0.000	
22	 C48	7.367	-0.888	20.679	C.3	1	LIG1	0.000	
23	 C49	9.395	-1.446	22.706	C.3	1	LIG1	0.000	
24	 C50	13.141	-0.923	23.264	C.3	1	LIG1	0.000	
25	 C51	10.877	-1.744	22.688	C.3	1	LIG1	0.000	
26	 C52	11.334	0.711	22.861	C.3	1	LIG1	0.000	
27	 C53	11.692	-0.673	23.354	C.3	1	LIG1	0.000	
28	 C54	9.884	0.903	22.944	C.3	1	LIG1	0.000	
@<TRIPOS>BOND
1 2 14 ar
2 3 12 1
3 1 4 2
4 4 22 1
5 2 5 ar
6 6 7 ar
7 7 9 ar
8 6 8 ar
9 9 13 ar
10 10 11 ar
11 11 16 ar
12 8 12 ar
13 12 13 ar
14 13 28 1
15 14 18 ar
16 10 15 ar
17 16 19 ar
18 5 17 ar
19 17 19 ar
20 15 18 ar
21 18 19 ar
22 4 20 1
23 3 21 1
24 17 22 1
25 20 23 1
26 23 25 1
27 26 27 1
28 24 27 1
29 25 27 1
30 20 28 1
31 26 28 1
@<TRIPOS>SUBSTRUCTURE
1	LIG1	1	GROUP	1 C	LIG
