# created with PyMOL 3.1.3.1
@<TRIPOS>MOLECULE
predicted
25 28 1                 
SMALL
USER_CHARGES
@<TRIPOS>ATOM
1	 O23	8.265	1.153	20.591	O.2	1	LIG1	0.000	
2	 N26	5.977	0.142	17.188	N.2	1	LIG1	0.000	
3	 C27	8.087	0.039	21.129	C.2	1	LIG1	0.000	
4	 C28	6.634	-0.405	18.211	C.2	1	LIG1	0.000	
5	 C29	2.824	2.070	20.152	C.2	1	LIG1	0.000	
6	 C30	3.473	1.548	21.214	C.2	1	LIG1	0.000	
7	 C31	4.897	0.832	17.377	C.2	1	LIG1	0.000	
8	 C32	3.274	1.846	18.879	C.2	1	LIG1	0.000	
9	 C33	4.606	0.808	21.057	C.2	1	LIG1	0.000	
10	 C34	6.233	-0.233	19.507	C.2	1	LIG1	0.000	
11	 C35	4.411	1.092	18.666	C.2	1	LIG1	0.000	
12	 C36	5.093	0.549	19.774	C.2	1	LIG1	0.000	
13	 N37	8.725	-0.515	22.231	N.pl3	1	LIG1	0.000	
14	 C38	7.038	-0.854	20.600	C.3	1	LIG1	0.000	
15	 C39	8.580	-0.031	23.539	C.3	1	LIG1	0.000	
16	 C40	13.425	-0.436	23.452	C.3	1	LIG1	0.000	
17	 C41	13.309	-1.452	22.371	C.3	1	LIG1	0.000	
18	 C42	9.513	-1.678	22.155	C.3	1	LIG1	0.000	
19	 C43	9.858	0.710	23.795	C.3	1	LIG1	0.000	
20	 C44	12.288	0.334	23.765	C.3	1	LIG1	0.000	
21	 C45	11.957	-1.949	22.165	C.3	1	LIG1	0.000	
22	 C46	11.037	-0.107	23.438	C.3	1	LIG1	0.000	
23	 C47	10.913	-1.214	22.558	C.3	1	LIG1	0.000	
24	 F24	13.747	-0.903	21.206	 F	1	LIG1	0.000	
25	 F25	14.145	-2.405	22.762	 F	1	LIG1	0.000	
@<TRIPOS>BOND
1 1 3 2
2 2 7 ar
3 3 13 1
4 3 14 1
5 2 4 ar
6 5 6 ar
7 6 9 ar
8 7 11 ar
9 5 8 ar
10 9 12 ar
11 4 10 ar
12 10 12 ar
13 8 11 ar
14 11 12 ar
15 13 15 1
16 13 18 1
17 10 14 1
18 15 19 1
19 16 17 1
20 17 21 1
21 17 24 1
22 17 25 1
23 19 22 1
24 16 20 1
25 21 23 1
26 20 22 1
27 22 23 1
28 18 23 1
@<TRIPOS>SUBSTRUCTURE
1	LIG1	1	GROUP	1 C	LIG
