# created with PyMOL 3.1.3.1
@<TRIPOS>MOLECULE
predicted
35 40 1                 
SMALL
USER_CHARGES
@<TRIPOS>ATOM
1	 O24	10.248	3.282	23.820	O.2	1	LIG1	0.000	
2	 O25	8.532	1.349	20.903	O.2	1	LIG1	0.000	
3	 N27	6.194	0.165	17.424	N.2	1	LIG1	0.000	
4	 N28	4.298	2.975	23.482	N.2	1	LIG1	0.000	
5	 N29	5.244	2.579	24.363	N.2	1	LIG1	0.000	
6	 C30	9.852	2.120	23.677	C.2	1	LIG1	0.000	
7	 C31	8.173	0.294	21.377	C.2	1	LIG1	0.000	
8	 C32	6.881	-0.234	18.467	C.2	1	LIG1	0.000	
9	 C33	12.925	0.240	22.738	C.2	1	LIG1	0.000	
10	 C34	12.108	1.242	23.151	C.2	1	LIG1	0.000	
11	 C35	11.023	-1.139	22.221	C.2	1	LIG1	0.000	
12	 C36	2.624	1.601	20.282	C.2	1	LIG1	0.000	
13	 C37	3.310	1.151	21.396	C.2	1	LIG1	0.000	
14	 C38	12.406	-0.942	22.268	C.2	1	LIG1	0.000	
15	 C39	10.735	1.060	23.161	C.2	1	LIG1	0.000	
16	 C40	10.185	-0.165	22.735	C.2	1	LIG1	0.000	
17	 C41	4.985	0.708	17.579	C.2	1	LIG1	0.000	
18	 C42	3.181	1.452	19.022	C.2	1	LIG1	0.000	
19	 C43	4.544	0.593	21.257	C.2	1	LIG1	0.000	
20	 C44	6.412	-0.094	19.775	C.2	1	LIG1	0.000	
21	 C45	4.862	3.663	22.521	C.2	1	LIG1	0.000	
22	 C46	6.411	3.033	23.912	C.2	1	LIG1	0.000	
23	 C47	4.425	0.885	18.859	C.2	1	LIG1	0.000	
24	 C48	5.132	0.466	19.989	C.2	1	LIG1	0.000	
25	 N49	7.185	-0.464	20.860	N.pl3	1	LIG1	0.000	
26	 N50	8.533	1.822	23.953	N.pl3	1	LIG1	0.000	
27	 N51	6.167	3.711	22.773	N.2	1	LIG1	0.000	
28	 C52	7.711	2.801	24.598	C.3	1	LIG1	0.000	
29	 C53	7.162	4.357	21.951	C.3	1	LIG1	0.000	
30	 C54	8.044	-2.511	23.791	C.3	1	LIG1	0.000	
31	 C55	7.057	-1.708	21.568	C.3	1	LIG1	0.000	
32	 C56	8.031	0.436	23.862	C.3	1	LIG1	0.000	
33	 C57	8.208	-1.726	22.555	C.3	1	LIG1	0.000	
34	 C58	8.694	-0.305	22.671	C.3	1	LIG1	0.000	
35	 F26	13.237	-1.887	21.866	 F	1	LIG1	0.000	
@<TRIPOS>BOND
1 3 17 ar
2 4 21 ar
3 4 5 ar
4 1 6 2
5 6 15 1
6 2 7 2
7 7 34 1
8 3 8 ar
9 9 14 ar
10 9 10 ar
11 11 16 ar
12 12 13 ar
13 13 19 ar
14 11 14 ar
15 14 35 1
16 10 15 ar
17 15 16 ar
18 17 23 ar
19 12 18 ar
20 19 24 ar
21 8 20 ar
22 20 24 ar
23 21 27 ar
24 5 22 ar
25 22 27 ar
26 18 23 ar
27 23 24 ar
28 7 25 1
29 20 25 1
30 6 26 1
31 26 28 1
32 27 29 1
33 22 28 1
34 30 33 1
35 25 31 1
36 26 32 1
37 31 33 1
38 33 34 1
39 16 34 1
40 32 34 1
@<TRIPOS>SUBSTRUCTURE
1	LIG1	1	GROUP	1 C	LIG
