# created with PyMOL 3.1.3.1
@<TRIPOS>MOLECULE
predicted
38 43 1                 
SMALL
USER_CHARGES
@<TRIPOS>ATOM
1	CL37	13.678	-1.832	21.614	Cl	1	LIG1	0.000	
2	 O35	10.329	3.591	23.575	O.2	1	LIG1	0.000	
3	 O36	8.665	1.641	20.704	O.2	1	LIG1	0.000	
4	 N38	6.273	0.302	17.181	N.2	1	LIG1	0.000	
5	 O39	5.813	7.486	22.323	O.3	1	LIG1	0.000	
6	 C40	9.954	2.433	23.460	C.2	1	LIG1	0.000	
7	 C41	8.303	0.578	21.173	C.2	1	LIG1	0.000	
8	 C42	6.970	-0.089	18.235	C.2	1	LIG1	0.000	
9	 C43	13.046	0.584	22.620	C.2	1	LIG1	0.000	
10	 C44	12.209	1.577	23.007	C.2	1	LIG1	0.000	
11	 C45	11.170	-0.807	22.050	C.2	1	LIG1	0.000	
12	 C46	2.946	2.197	20.052	C.2	1	LIG1	0.000	
13	 C47	3.650	1.799	21.164	C.2	1	LIG1	0.000	
14	 C48	12.548	-0.603	22.128	C.2	1	LIG1	0.000	
15	 C49	10.860	1.381	22.988	C.2	1	LIG1	0.000	
16	 C50	10.317	0.164	22.544	C.2	1	LIG1	0.000	
17	 C51	5.107	0.924	17.339	C.2	1	LIG1	0.000	
18	 C52	3.421	1.909	18.793	C.2	1	LIG1	0.000	
19	 C53	4.822	1.140	21.028	C.2	1	LIG1	0.000	
20	 C54	6.563	0.173	19.544	C.2	1	LIG1	0.000	
21	 C55	4.605	1.236	18.619	C.2	1	LIG1	0.000	
22	 C56	5.329	0.850	19.754	C.2	1	LIG1	0.000	
23	 N57	7.338	-0.200	20.640	N.pl3	1	LIG1	0.000	
24	 N58	8.620	2.133	23.691	N.pl3	1	LIG1	0.000	
25	 C59	7.718	3.115	24.160	C.3	1	LIG1	0.000	
26	 C60	4.021	6.660	20.861	C.3	1	LIG1	0.000	
27	 C61	7.610	8.246	23.772	C.3	1	LIG1	0.000	
28	 C62	8.130	-2.168	23.614	C.3	1	LIG1	0.000	
29	 C63	7.215	-1.430	21.360	C.3	1	LIG1	0.000	
30	 C64	8.162	0.771	23.642	C.3	1	LIG1	0.000	
31	 C65	6.778	3.484	23.102	C.3	1	LIG1	0.000	
32	 C66	5.337	5.098	22.165	C.3	1	LIG1	0.000	
33	 C67	7.076	5.842	23.611	C.3	1	LIG1	0.000	
34	 C68	5.406	6.368	21.416	C.3	1	LIG1	0.000	
35	 C69	7.180	7.131	22.863	C.3	1	LIG1	0.000	
36	 C70	8.337	-1.404	22.389	C.3	1	LIG1	0.000	
37	 C71	8.824	0.005	22.466	C.3	1	LIG1	0.000	
38	 N72	6.686	4.807	22.737	N.3	1	LIG1	0.000	
@<TRIPOS>BOND
1 4 17 ar
2 2 6 2
3 3 7 2
4 7 23 1
5 4 8 ar
6 9 10 ar
7 10 15 ar
8 11 14 ar
9 12 13 ar
10 13 19 ar
11 1 14 1
12 9 14 ar
13 6 15 1
14 11 16 ar
15 15 16 ar
16 17 21 ar
17 12 18 ar
18 19 22 ar
19 8 20 ar
20 20 22 ar
21 18 21 ar
22 21 22 ar
23 20 23 1
24 23 29 1
25 6 24 1
26 24 30 1
27 24 25 1
28 26 34 1
29 29 36 1
30 30 37 1
31 25 31 1
32 32 38 1
33 33 35 1
34 5 34 1
35 32 34 1
36 5 35 1
37 27 35 1
38 28 36 1
39 7 37 1
40 16 37 1
41 36 37 1
42 31 38 1
43 33 38 1
@<TRIPOS>SUBSTRUCTURE
1	LIG1	1	GROUP	1 C	LIG
