# created with PyMOL 3.1.3.1
@<TRIPOS>MOLECULE
predicted
34 39 1                 
SMALL
USER_CHARGES
@<TRIPOS>ATOM
1	CL25	-13.629	-3.800	-22.852	Cl	1	LIG1	0.000	
2	 O21	-10.057	1.778	-24.386	O.2	1	LIG1	0.000	
3	 O22	-5.815	-0.820	-25.114	O.2	1	LIG1	0.000	
4	 O23	-8.785	-0.084	-21.481	O.2	1	LIG1	0.000	
5	 N26	-6.568	-1.013	-17.602	N.2	1	LIG1	0.000	
6	 C27	-9.914	0.596	-24.160	C.2	1	LIG1	0.000	
7	 C28	-6.711	-0.208	-25.597	C.2	1	LIG1	0.000	
8	 C29	-8.400	-1.193	-21.759	C.2	1	LIG1	0.000	
9	 C30	-13.073	-1.245	-23.278	C.3	1	LIG1	0.000	
10	 C31	-12.220	-0.144	-23.515	C.3	1	LIG1	0.000	
11	 C32	-12.534	-2.509	-23.097	C.3	1	LIG1	0.000	
12	 C33	-10.875	-0.367	-23.616	C.3	1	LIG1	0.000	
13	 C34	-7.878	-4.180	-23.811	C.3	1	LIG1	0.000	
14	 C35	-8.321	-3.301	-22.685	C.3	1	LIG1	0.000	
15	 C36	-7.194	-1.520	-18.652	C.2	1	LIG1	0.000	
16	 C37	-3.207	0.859	-20.521	C.2	1	LIG1	0.000	
17	 C38	-3.849	0.331	-21.635	C.2	1	LIG1	0.000	
18	 C39	-5.433	-0.332	-17.779	C.2	1	LIG1	0.000	
19	 C40	-3.727	0.648	-19.250	C.2	1	LIG1	0.000	
20	 C41	-5.004	-0.394	-21.489	C.2	1	LIG1	0.000	
21	 C42	-6.754	-1.342	-19.960	C.2	1	LIG1	0.000	
22	 C43	-4.888	-0.091	-19.060	C.2	1	LIG1	0.000	
23	 C44	-5.546	-0.611	-20.194	C.2	1	LIG1	0.000	
24	 N45	-6.932	-0.245	-26.874	N.pl3	1	LIG1	0.000	
25	 N46	-7.448	-1.871	-21.060	N.pl3	1	LIG1	0.000	
26	 N47	-8.815	-0.061	-24.384	N.pl3	1	LIG1	0.000	
27	 C48	-6.112	-0.990	-27.745	C.3	1	LIG1	0.000	
28	 C49	-7.611	0.576	-24.744	C.3	1	LIG1	0.000	
29	 C50	-7.275	-3.148	-21.589	C.3	1	LIG1	0.000	
30	 C51	-11.150	-2.740	-23.207	C.3	1	LIG1	0.000	
31	 C52	-8.888	-1.957	-22.929	C.3	1	LIG1	0.000	
32	 C53	-9.078	-1.504	-24.151	C.3	1	LIG1	0.000	
33	 C54	-10.202	-1.681	-23.465	C.3	1	LIG1	0.000	
34	 F24	-6.611	-3.983	-24.244	 F	1	LIG1	0.000	
@<TRIPOS>BOND
1 5 18 ar
2 2 6 2
3 6 12 1
4 3 7 2
5 7 28 1
6 4 8 2
7 8 25 1
8 9 11 1
9 9 10 1
10 1 11 1
11 11 30 1
12 10 12 1
13 12 33 1
14 13 34 1
15 13 14 1
16 5 15 ar
17 16 17 ar
18 17 20 ar
19 18 22 ar
20 16 19 ar
21 20 23 ar
22 15 21 ar
23 21 23 ar
24 19 22 ar
25 22 23 ar
26 7 24 1
27 21 25 1
28 25 29 1
29 6 26 1
30 26 32 1
31 24 27 1
32 26 28 1
33 14 29 1
34 30 33 1
35 8 31 1
36 14 31 1
37 31 32 1
38 31 33 1
39 32 33 1
@<TRIPOS>SUBSTRUCTURE
1	LIG1	1	GROUP	1 C	LIG
