# created with PyMOL 3.1.3.1
@<TRIPOS>MOLECULE
predicted
38 43 1                 
SMALL
USER_CHARGES
@<TRIPOS>ATOM
1	CL35	13.643	-1.983	22.145	Cl	1	LIG1	0.000	
2	 O32	10.427	3.595	23.730	O.2	1	LIG1	0.000	
3	 O33	8.714	1.563	20.928	O.2	1	LIG1	0.000	
4	 N36	6.316	0.074	17.509	N.2	1	LIG1	0.000	
5	 O37	7.235	-2.187	24.590	O.3	1	LIG1	0.000	
6	 C38	10.020	2.435	23.649	C.2	1	LIG1	0.000	
7	 C39	8.376	0.514	21.447	C.2	1	LIG1	0.000	
8	 C40	7.036	-0.276	18.567	C.2	1	LIG1	0.000	
9	 C41	13.082	0.483	22.933	C.2	1	LIG1	0.000	
10	 C42	12.257	1.520	23.257	C.2	1	LIG1	0.000	
11	 C43	11.190	-0.906	22.465	C.2	1	LIG1	0.000	
12	 C44	3.013	1.999	20.372	C.2	1	LIG1	0.000	
13	 C45	3.730	1.639	21.494	C.2	1	LIG1	0.000	
14	 C46	12.556	-0.726	22.530	C.2	1	LIG1	0.000	
15	 C47	10.908	1.347	23.251	C.2	1	LIG1	0.000	
16	 C48	10.353	0.117	22.875	C.2	1	LIG1	0.000	
17	 C49	5.156	0.694	17.681	C.2	1	LIG1	0.000	
18	 C50	3.487	1.686	19.114	C.2	1	LIG1	0.000	
19	 C51	4.903	0.982	21.357	C.2	1	LIG1	0.000	
20	 C52	6.633	-0.008	19.873	C.2	1	LIG1	0.000	
21	 C53	4.667	1.020	18.953	C.2	1	LIG1	0.000	
22	 C54	5.400	0.662	20.087	C.2	1	LIG1	0.000	
23	 N55	7.429	-0.319	20.949	N.pl3	1	LIG1	0.000	
24	 N56	8.681	2.175	23.844	N.pl3	1	LIG1	0.000	
25	 C57	7.150	-3.091	25.648	C.3	1	LIG1	0.000	
26	 C58	7.784	3.208	24.195	C.3	1	LIG1	0.000	
27	 C59	5.142	-1.800	26.435	C.3	1	LIG1	0.000	
28	 C60	6.317	-1.330	27.215	C.3	1	LIG1	0.000	
29	 C61	6.215	-2.651	26.694	C.3	1	LIG1	0.000	
30	 C62	8.399	-2.171	23.955	C.3	1	LIG1	0.000	
31	 C63	7.353	-1.519	21.695	C.3	1	LIG1	0.000	
32	 C64	8.196	0.844	23.858	C.3	1	LIG1	0.000	
33	 C65	6.042	5.415	21.744	C.3	1	LIG1	0.000	
34	 C66	7.427	3.890	22.871	C.2	1	LIG1	0.000	
35	 C67	8.394	-1.426	22.725	C.3	1	LIG1	0.000	
36	 C68	8.873	0.010	22.772	C.3	1	LIG1	0.000	
37	 N69	6.354	4.717	22.931	N.2	1	LIG1	0.000	
38	 F34	6.016	-3.630	27.533	 F	1	LIG1	0.000	
@<TRIPOS>BOND
1 4 17 ar
2 5 25 1
3 2 6 2
4 3 7 2
5 7 23 1
6 4 8 ar
7 9 10 ar
8 10 15 ar
9 11 14 ar
10 12 13 ar
11 13 19 ar
12 1 14 1
13 9 14 ar
14 6 15 1
15 11 16 ar
16 15 16 ar
17 17 21 ar
18 12 18 ar
19 19 22 ar
20 8 20 ar
21 20 22 ar
22 18 21 ar
23 21 22 ar
24 20 23 1
25 23 31 1
26 6 24 1
27 24 32 1
28 25 29 1
29 24 26 1
30 27 28 1
31 27 29 1
32 28 29 1
33 29 38 1
34 5 30 1
35 31 35 1
36 32 36 1
37 33 37 1
38 26 34 1
39 30 35 1
40 7 36 1
41 16 36 1
42 35 36 1
43 34 37 2
@<TRIPOS>SUBSTRUCTURE
1	LIG1	1	GROUP	1 C	LIG
