# created with PyMOL 3.1.3.1
@<TRIPOS>MOLECULE
predicted
36 40 1                 
SMALL
USER_CHARGES
@<TRIPOS>ATOM
1	CL32	-12.977	-3.441	-21.552	Cl	1	LIG1	0.000	
2	 O30	-8.598	-0.112	-20.843	O.2	1	LIG1	0.000	
3	 O31	-6.270	-7.335	-23.529	O.2	1	LIG1	0.000	
4	 N33	-6.269	-1.070	-17.501	N.2	1	LIG1	0.000	
5	 C34	-8.033	-0.937	-21.579	C.2	1	LIG1	0.000	
6	 C35	-6.203	-6.195	-23.744	C.2	1	LIG1	0.000	
7	 C36	-6.785	-1.600	-18.620	C.2	1	LIG1	0.000	
8	 C37	-12.810	-1.012	-24.589	C.2	1	LIG1	0.000	
9	 C38	-5.945	-2.143	-25.468	C.2	1	LIG1	0.000	
10	 C39	-13.245	-1.939	-23.668	C.2	1	LIG1	0.000	
11	 C40	-6.719	-1.326	-24.636	C.2	1	LIG1	0.000	
12	 C41	-11.549	-0.462	-24.440	C.2	1	LIG1	0.000	
13	 C42	-11.190	-1.687	-22.529	C.2	1	LIG1	0.000	
14	 C43	-6.111	-3.518	-25.475	C.2	1	LIG1	0.000	
15	 C44	-2.966	1.207	-20.076	C.2	1	LIG1	0.000	
16	 C45	-3.496	0.700	-21.239	C.2	1	LIG1	0.000	
17	 C46	-12.446	-2.267	-22.668	C.2	1	LIG1	0.000	
18	 C47	-7.674	-1.891	-23.819	C.2	1	LIG1	0.000	
19	 C48	-10.737	-0.765	-23.426	C.2	1	LIG1	0.000	
20	 C49	-7.906	-3.274	-23.870	C.2	1	LIG1	0.000	
21	 C50	-7.050	-4.093	-24.622	C.2	1	LIG1	0.000	
22	 C51	-5.227	-0.305	-17.562	C.2	1	LIG1	0.000	
23	 C52	-3.533	0.898	-18.870	C.2	1	LIG1	0.000	
24	 C53	-4.606	-0.141	-21.230	C.2	1	LIG1	0.000	
25	 C54	-6.300	-1.317	-19.874	C.2	1	LIG1	0.000	
26	 C55	-4.632	0.049	-18.798	C.2	1	LIG1	0.000	
27	 C56	-5.176	-0.476	-19.984	C.2	1	LIG1	0.000	
28	 N57	-8.355	-1.018	-22.895	N.pl3	1	LIG1	0.000	
29	 C58	-6.966	-1.882	-21.085	C.3	1	LIG1	0.000	
30	 C59	-9.353	-0.116	-23.360	C.3	1	LIG1	0.000	
31	 C60	-4.879	-5.437	-21.743	C.3	1	LIG1	0.000	
32	 C61	-4.983	-5.453	-23.244	C.3	1	LIG1	0.000	
33	 C62	-8.947	-3.988	-23.143	C.3	1	LIG1	0.000	
34	 C63	-9.393	-5.228	-23.627	C.3	1	LIG1	0.000	
35	 C64	-8.468	-6.001	-24.595	C.3	1	LIG1	0.000	
36	 N65	-7.159	-5.492	-24.408	N.pl3	1	LIG1	0.000	
@<TRIPOS>BOND
1 4 22 ar
2 2 5 2
3 5 29 1
4 3 6 2
5 6 36 1
6 4 7 ar
7 8 10 ar
8 9 14 ar
9 10 17 ar
10 9 11 ar
11 8 12 ar
12 14 21 ar
13 15 16 ar
14 16 24 ar
15 1 17 1
16 13 17 ar
17 11 18 ar
18 18 28 1
19 12 19 ar
20 13 19 ar
21 18 20 ar
22 20 21 ar
23 22 26 ar
24 15 23 ar
25 24 27 ar
26 7 25 ar
27 25 27 ar
28 23 26 ar
29 26 27 ar
30 5 28 1
31 28 30 1
32 25 29 1
33 19 30 1
34 31 32 1
35 6 32 1
36 20 33 1
37 33 34 1
38 34 35 1
39 21 36 1
40 35 36 1
@<TRIPOS>SUBSTRUCTURE
1	LIG1	1	GROUP	1 C	LIG
