# created with PyMOL 3.1.3.1
@<TRIPOS>MOLECULE
predicted
38 43 1                 
SMALL
USER_CHARGES
@<TRIPOS>ATOM
1	CL37	13.571	-2.153	21.878	Cl	1	LIG1	0.000	
2	 O35	10.440	3.449	23.707	O.2	1	LIG1	0.000	
3	 O36	8.689	1.433	20.867	O.2	1	LIG1	0.000	
4	 N38	6.236	0.047	17.461	N.2	1	LIG1	0.000	
5	 O39	5.344	7.522	23.279	O.3	1	LIG1	0.000	
6	 C40	10.011	2.293	23.602	C.2	1	LIG1	0.000	
7	 C41	8.306	0.397	21.372	C.2	1	LIG1	0.000	
8	 C42	6.963	-0.305	18.505	C.2	1	LIG1	0.000	
9	 C43	13.047	0.312	22.801	C.2	1	LIG1	0.000	
10	 C44	12.242	1.351	23.168	C.2	1	LIG1	0.000	
11	 C45	11.120	-1.040	22.288	C.2	1	LIG1	0.000	
12	 C46	2.850	1.802	20.377	C.2	1	LIG1	0.000	
13	 C47	3.585	1.454	21.488	C.2	1	LIG1	0.000	
14	 C48	12.501	-0.878	22.355	C.2	1	LIG1	0.000	
15	 C49	10.884	1.198	23.166	C.2	1	LIG1	0.000	
16	 C50	10.310	-0.023	22.771	C.2	1	LIG1	0.000	
17	 C51	5.046	0.622	17.627	C.2	1	LIG1	0.000	
18	 C52	3.327	1.521	19.103	C.2	1	LIG1	0.000	
19	 C53	4.784	0.834	21.334	C.2	1	LIG1	0.000	
20	 C54	6.538	-0.071	19.815	C.2	1	LIG1	0.000	
21	 C55	4.540	0.902	18.916	C.2	1	LIG1	0.000	
22	 C56	5.282	0.555	20.047	C.2	1	LIG1	0.000	
23	 N57	7.328	-0.396	20.894	N.pl3	1	LIG1	0.000	
24	 N58	8.658	2.050	23.805	N.pl3	1	LIG1	0.000	
25	 C59	7.782	3.103	24.182	C.3	1	LIG1	0.000	
26	 C60	5.129	7.339	25.639	C.3	1	LIG1	0.000	
27	 C61	8.132	-2.266	23.906	C.3	1	LIG1	0.000	
28	 C62	7.206	-1.587	21.643	C.3	1	LIG1	0.000	
29	 C63	4.897	5.013	21.526	C.3	1	LIG1	0.000	
30	 C64	6.169	7.139	22.090	C.3	1	LIG1	0.000	
31	 C65	8.155	0.718	23.822	C.3	1	LIG1	0.000	
32	 C66	7.262	3.780	22.952	C.3	1	LIG1	0.000	
33	 C67	6.048	5.400	24.315	C.3	1	LIG1	0.000	
34	 C68	6.006	6.915	24.498	C.3	1	LIG1	0.000	
35	 C69	8.308	-1.531	22.657	C.3	1	LIG1	0.000	
36	 C70	6.169	5.663	21.910	C.3	1	LIG1	0.000	
37	 C71	8.813	-0.136	22.694	C.3	1	LIG1	0.000	
38	 N72	6.788	5.090	23.140	N.3	1	LIG1	0.000	
@<TRIPOS>BOND
1 4 17 ar
2 2 6 2
3 3 7 2
4 7 23 1
5 4 8 ar
6 9 10 ar
7 10 15 ar
8 11 14 ar
9 12 13 ar
10 13 19 ar
11 1 14 1
12 9 14 ar
13 6 15 1
14 11 16 ar
15 15 16 ar
16 17 21 ar
17 12 18 ar
18 19 22 ar
19 8 20 ar
20 20 22 ar
21 18 21 ar
22 21 22 ar
23 20 23 1
24 23 28 1
25 6 24 1
26 24 31 1
27 24 25 1
28 26 34 1
29 28 35 1
30 5 30 1
31 31 37 1
32 25 32 1
33 33 38 1
34 5 34 1
35 33 34 1
36 27 35 1
37 29 36 1
38 30 36 1
39 7 37 1
40 16 37 1
41 35 37 1
42 32 38 1
43 36 38 1
@<TRIPOS>SUBSTRUCTURE
1	LIG1	1	GROUP	1 C	LIG
