# created with PyMOL 3.1.3.1
@<TRIPOS>MOLECULE
predicted
33 37 1                 
SMALL
USER_CHARGES
@<TRIPOS>ATOM
1	 O24	10.709	3.227	23.376	O.2	1	LIG1	0.000	
2	 O25	9.075	4.848	23.811	O.2	1	LIG1	0.000	
3	 O26	8.880	1.225	20.708	O.2	1	LIG1	0.000	
4	 N28	6.295	-0.080	17.403	N.2	1	LIG1	0.000	
5	 C29	10.225	2.105	23.345	C.2	1	LIG1	0.000	
6	 C30	8.234	4.277	23.184	C.2	1	LIG1	0.000	
7	 C31	8.465	0.226	21.256	C.2	1	LIG1	0.000	
8	 C32	7.026	-0.441	18.438	C.2	1	LIG1	0.000	
9	 C33	13.237	-0.044	22.889	C.2	1	LIG1	0.000	
10	 C34	12.457	1.051	23.135	C.2	1	LIG1	0.000	
11	 C35	11.282	-1.338	22.347	C.2	1	LIG1	0.000	
12	 C36	3.018	1.850	20.334	C.2	1	LIG1	0.000	
13	 C37	3.758	1.477	21.446	C.2	1	LIG1	0.000	
14	 C38	12.668	-1.227	22.491	C.2	1	LIG1	0.000	
15	 C39	11.079	0.959	23.058	C.2	1	LIG1	0.000	
16	 C40	10.468	-0.243	22.694	C.2	1	LIG1	0.000	
17	 C41	5.128	0.543	17.586	C.2	1	LIG1	0.000	
18	 C42	3.464	1.541	19.065	C.2	1	LIG1	0.000	
19	 C43	4.935	0.812	21.281	C.2	1	LIG1	0.000	
20	 C44	6.631	-0.182	19.749	C.2	1	LIG1	0.000	
21	 C45	4.655	0.868	18.872	C.2	1	LIG1	0.000	
22	 C46	5.409	0.505	19.990	C.2	1	LIG1	0.000	
23	 N47	7.652	4.778	22.093	N.pl3	1	LIG1	0.000	
24	 N48	7.429	-0.520	20.814	N.pl3	1	LIG1	0.000	
25	 N49	8.842	1.932	23.477	N.pl3	1	LIG1	0.000	
26	 C50	7.942	6.085	21.652	C.3	1	LIG1	0.000	
27	 C51	7.837	2.929	23.521	C.3	1	LIG1	0.000	
28	 C52	8.264	-2.355	23.873	C.3	1	LIG1	0.000	
29	 C53	7.268	-1.698	21.610	C.3	1	LIG1	0.000	
30	 C54	8.332	0.610	23.665	C.3	1	LIG1	0.000	
31	 C55	8.399	-1.675	22.575	C.3	1	LIG1	0.000	
32	 C56	8.964	-0.297	22.579	C.3	1	LIG1	0.000	
33	 F27	13.478	-2.259	22.255	 F	1	LIG1	0.000	
@<TRIPOS>BOND
1 4 17 ar
2 1 5 2
3 2 6 2
4 6 27 1
5 3 7 2
6 7 24 1
7 4 8 ar
8 9 10 ar
9 10 15 ar
10 11 14 ar
11 12 13 ar
12 13 19 ar
13 9 14 ar
14 14 33 1
15 5 15 1
16 11 16 ar
17 15 16 ar
18 17 21 ar
19 12 18 ar
20 19 22 ar
21 8 20 ar
22 20 22 ar
23 18 21 ar
24 21 22 ar
25 6 23 1
26 20 24 1
27 24 29 1
28 5 25 1
29 25 30 1
30 23 26 1
31 25 27 1
32 29 31 1
33 30 32 1
34 28 31 1
35 7 32 1
36 16 32 1
37 31 32 1
@<TRIPOS>SUBSTRUCTURE
1	LIG1	1	GROUP	1 C	LIG
