# created with PyMOL 3.1.3.1
@<TRIPOS>MOLECULE
predicted
32 37 1                 
SMALL
USER_CHARGES
@<TRIPOS>ATOM
1	CL27	13.448	-1.939	22.174	Cl	1	LIG1	0.000	
2	 O25	10.167	3.707	23.434	O.2	1	LIG1	0.000	
3	 O26	8.504	1.472	20.754	O.2	1	LIG1	0.000	
4	 N28	6.115	0.060	17.450	N.2	1	LIG1	0.000	
5	 C29	9.757	2.556	23.409	C.2	1	LIG1	0.000	
6	 C30	8.140	0.471	21.342	C.2	1	LIG1	0.000	
7	 C31	6.817	-0.291	18.503	C.2	1	LIG1	0.000	
8	 C32	12.866	0.577	22.855	C.2	1	LIG1	0.000	
9	 C33	12.029	1.627	23.115	C.2	1	LIG1	0.000	
10	 C34	10.978	-0.858	22.435	C.2	1	LIG1	0.000	
11	 C35	2.690	1.873	20.296	C.2	1	LIG1	0.000	
12	 C36	3.385	1.490	21.417	C.2	1	LIG1	0.000	
13	 C37	12.357	-0.653	22.512	C.2	1	LIG1	0.000	
14	 C38	10.664	1.436	23.091	C.2	1	LIG1	0.000	
15	 C39	10.123	0.180	22.794	C.2	1	LIG1	0.000	
16	 C40	4.939	0.670	17.603	C.2	1	LIG1	0.000	
17	 C41	3.199	1.616	19.031	C.2	1	LIG1	0.000	
18	 C42	4.567	0.840	21.282	C.2	1	LIG1	0.000	
19	 C43	6.374	-0.064	19.808	C.2	1	LIG1	0.000	
20	 C44	4.414	0.964	18.873	C.2	1	LIG1	0.000	
21	 C45	5.120	0.592	20.009	C.2	1	LIG1	0.000	
22	 N46	7.164	-0.350	20.889	N.pl3	1	LIG1	0.000	
23	 N47	8.397	2.310	23.607	N.pl3	1	LIG1	0.000	
24	 C48	7.449	3.368	23.882	C.3	1	LIG1	0.000	
25	 C49	7.950	-2.032	24.032	C.3	1	LIG1	0.000	
26	 C50	7.061	-1.516	21.708	C.3	1	LIG1	0.000	
27	 C51	7.949	0.920	23.758	C.3	1	LIG1	0.000	
28	 C52	7.685	4.625	22.976	C.3	1	LIG1	0.000	
29	 C53	6.198	3.137	22.986	C.3	1	LIG1	0.000	
30	 C54	8.166	-1.381	22.742	C.3	1	LIG1	0.000	
31	 C55	8.623	0.022	22.695	C.3	1	LIG1	0.000	
32	 N56	6.598	4.274	21.919	N.3	1	LIG1	0.000	
@<TRIPOS>BOND
1 4 16 ar
2 2 5 2
3 5 14 1
4 3 6 2
5 6 31 1
6 4 7 ar
7 8 13 ar
8 8 9 ar
9 10 15 ar
10 11 12 ar
11 12 18 ar
12 1 13 1
13 10 13 ar
14 9 14 ar
15 14 15 ar
16 16 20 ar
17 11 17 ar
18 18 21 ar
19 7 19 ar
20 19 21 ar
21 17 20 ar
22 20 21 ar
23 6 22 1
24 19 22 1
25 5 23 1
26 23 24 1
27 24 28 1
28 24 29 1
29 25 30 1
30 22 26 1
31 23 27 1
32 28 32 1
33 26 30 1
34 30 31 1
35 15 31 1
36 27 31 1
37 29 32 1
@<TRIPOS>SUBSTRUCTURE
1	LIG1	1	GROUP	1 C	LIG
