# created with PyMOL 3.1.3.1
@<TRIPOS>MOLECULE
predicted
35 40 1                 
SMALL
USER_CHARGES
@<TRIPOS>ATOM
1	 O25	10.460	3.202	23.967	O.2	1	LIG1	0.000	
2	 O26	8.697	1.232	21.016	O.2	1	LIG1	0.000	
3	 N28	6.184	0.092	17.612	N.2	1	LIG1	0.000	
4	 N29	4.986	4.051	22.779	N.2	1	LIG1	0.000	
5	 C30	10.018	2.054	23.829	C.2	1	LIG1	0.000	
6	 C31	8.270	0.211	21.529	C.2	1	LIG1	0.000	
7	 C32	5.879	4.173	21.850	C.2	1	LIG1	0.000	
8	 C33	6.886	-0.312	18.658	C.2	1	LIG1	0.000	
9	 C34	13.046	0.042	22.968	C.2	1	LIG1	0.000	
10	 C35	12.255	1.091	23.356	C.2	1	LIG1	0.000	
11	 C36	11.100	-1.299	22.459	C.2	1	LIG1	0.000	
12	 C37	2.741	1.753	20.549	C.2	1	LIG1	0.000	
13	 C38	3.435	1.306	21.653	C.2	1	LIG1	0.000	
14	 C39	7.100	3.755	22.373	C.2	1	LIG1	0.000	
15	 C40	12.492	-1.141	22.524	C.2	1	LIG1	0.000	
16	 C41	10.873	0.953	23.338	C.2	1	LIG1	0.000	
17	 C42	10.278	-0.269	22.934	C.2	1	LIG1	0.000	
18	 C43	5.002	0.698	17.789	C.2	1	LIG1	0.000	
19	 C44	3.259	1.549	19.267	C.2	1	LIG1	0.000	
20	 C45	4.636	0.681	21.492	C.2	1	LIG1	0.000	
21	 C46	6.443	-0.136	19.972	C.2	1	LIG1	0.000	
22	 C47	6.857	3.374	23.670	C.2	1	LIG1	0.000	
23	 C48	4.473	0.923	19.077	C.2	1	LIG1	0.000	
24	 C49	5.190	0.490	20.205	C.2	1	LIG1	0.000	
25	 N50	7.231	-0.516	21.051	N.pl3	1	LIG1	0.000	
26	 N51	8.671	1.808	24.079	N.pl3	1	LIG1	0.000	
27	 N52	5.592	3.596	23.901	N.2	1	LIG1	0.000	
28	 C53	7.866	2.842	24.665	C.3	1	LIG1	0.000	
29	 C54	4.870	3.331	25.126	C.3	1	LIG1	0.000	
30	 C55	8.034	-2.520	24.011	C.3	1	LIG1	0.000	
31	 C56	7.070	-1.723	21.792	C.3	1	LIG1	0.000	
32	 C57	8.122	0.455	24.005	C.3	1	LIG1	0.000	
33	 C58	8.230	-1.761	22.763	C.3	1	LIG1	0.000	
34	 C59	8.769	-0.360	22.847	C.3	1	LIG1	0.000	
35	 F27	13.304	-2.122	22.165	 F	1	LIG1	0.000	
@<TRIPOS>BOND
1 3 18 ar
2 4 27 ar
3 1 5 2
4 5 16 1
5 2 6 2
6 6 34 1
7 4 7 ar
8 3 8 ar
9 9 15 ar
10 9 10 ar
11 11 17 ar
12 12 13 ar
13 13 20 ar
14 7 14 ar
15 11 15 ar
16 15 35 1
17 10 16 ar
18 16 17 ar
19 18 23 ar
20 12 19 ar
21 20 24 ar
22 8 21 ar
23 21 24 ar
24 14 22 ar
25 22 27 ar
26 19 23 ar
27 23 24 ar
28 6 25 1
29 21 25 1
30 5 26 1
31 26 28 1
32 27 29 1
33 22 28 1
34 30 33 1
35 25 31 1
36 26 32 1
37 31 33 1
38 33 34 1
39 17 34 1
40 32 34 1
@<TRIPOS>SUBSTRUCTURE
1	LIG1	1	GROUP	1 C	LIG
