# created with PyMOL 3.1.3.1
@<TRIPOS>MOLECULE
predicted
30 33 1                 
SMALL
USER_CHARGES
@<TRIPOS>ATOM
1	CL23	13.551	-1.879	20.764	Cl	1	LIG1	0.000	
2	 O22	8.414	0.980	20.767	O.2	1	LIG1	0.000	
3	 N24	6.031	-0.017	17.374	N.2	1	LIG1	0.000	
4	 O25	7.402	-4.586	25.876	O.3	1	LIG1	0.000	
5	 C26	8.063	-0.032	21.392	C.2	1	LIG1	0.000	
6	 C27	6.679	-0.555	18.423	C.2	1	LIG1	0.000	
7	 C28	12.752	-1.008	24.597	C.2	1	LIG1	0.000	
8	 C29	13.387	-1.471	23.437	C.2	1	LIG1	0.000	
9	 C30	7.005	-2.256	25.215	C.2	1	LIG1	0.000	
10	 C31	8.661	-3.639	24.095	C.2	1	LIG1	0.000	
11	 C32	7.336	-1.216	24.393	C.2	1	LIG1	0.000	
12	 C33	8.970	-2.588	23.294	C.2	1	LIG1	0.000	
13	 C34	11.525	-0.351	24.460	C.2	1	LIG1	0.000	
14	 C35	11.562	-0.663	22.072	C.2	1	LIG1	0.000	
15	 C36	2.767	1.847	20.286	C.2	1	LIG1	0.000	
16	 C37	3.421	1.335	21.380	C.2	1	LIG1	0.000	
17	 C38	12.786	-1.305	22.193	C.2	1	LIG1	0.000	
18	 C39	7.683	-3.503	25.074	C.2	1	LIG1	0.000	
19	 C40	8.301	-1.389	23.435	C.2	1	LIG1	0.000	
20	 C41	10.986	-0.141	23.196	C.2	1	LIG1	0.000	
21	 C42	4.931	0.653	17.539	C.2	1	LIG1	0.000	
22	 C43	3.253	1.629	19.021	C.2	1	LIG1	0.000	
23	 C44	4.581	0.600	21.247	C.2	1	LIG1	0.000	
24	 C45	6.262	-0.387	19.718	C.2	1	LIG1	0.000	
25	 C46	4.409	0.887	18.827	C.2	1	LIG1	0.000	
26	 C47	5.092	0.362	19.948	C.2	1	LIG1	0.000	
27	 N48	8.618	-0.288	22.600	N.pl3	1	LIG1	0.000	
28	 C49	6.702	-4.387	27.008	C.3	1	LIG1	0.000	
29	 C50	7.054	-0.997	20.865	C.3	1	LIG1	0.000	
30	 C51	9.676	0.604	23.105	C.3	1	LIG1	0.000	
@<TRIPOS>BOND
1 3 21 ar
2 4 18 1
3 2 5 2
4 5 29 1
5 3 6 ar
6 7 8 ar
7 8 17 ar
8 9 11 ar
9 11 19 ar
10 10 12 ar
11 7 13 ar
12 15 16 ar
13 16 23 ar
14 1 17 1
15 14 17 ar
16 9 18 ar
17 10 18 ar
18 12 19 ar
19 19 27 1
20 13 20 ar
21 14 20 ar
22 21 25 ar
23 15 22 ar
24 23 26 ar
25 6 24 ar
26 24 26 ar
27 22 25 ar
28 25 26 ar
29 5 27 1
30 27 30 1
31 4 28 1
32 24 29 1
33 20 30 1
@<TRIPOS>SUBSTRUCTURE
1	LIG1	1	GROUP	1 C	LIG
