# created with PyMOL 3.1.3.1
@<TRIPOS>MOLECULE
predicted
34 38 1                 
SMALL
USER_CHARGES
@<TRIPOS>ATOM
1	CL26	13.451	-1.823	22.496	Cl	1	LIG1	0.000	
2	CL27	7.744	-3.482	24.099	Cl	1	LIG1	0.000	
3	 O23	10.066	3.865	23.108	O.2	1	LIG1	0.000	
4	 O24	7.228	4.032	25.319	O.2	1	LIG1	0.000	
5	 O25	8.536	1.563	20.651	O.2	1	LIG1	0.000	
6	 N28	6.172	0.030	17.348	N.2	1	LIG1	0.000	
7	 C29	9.676	2.701	23.183	C.2	1	LIG1	0.000	
8	 C30	7.122	4.370	24.160	C.2	1	LIG1	0.000	
9	 C31	8.155	0.575	21.243	C.2	1	LIG1	0.000	
10	 C32	6.866	-0.284	18.422	C.2	1	LIG1	0.000	
11	 C33	12.825	0.730	22.960	C.2	1	LIG1	0.000	
12	 C34	11.968	1.786	23.112	C.2	1	LIG1	0.000	
13	 C35	10.968	-0.731	22.515	C.2	1	LIG1	0.000	
14	 C36	2.769	2.001	20.126	C.2	1	LIG1	0.000	
15	 C37	3.476	1.678	21.267	C.2	1	LIG1	0.000	
16	 C38	12.334	-0.522	22.656	C.2	1	LIG1	0.000	
17	 C39	10.606	1.594	23.025	C.2	1	LIG1	0.000	
18	 C40	10.087	0.318	22.756	C.2	1	LIG1	0.000	
19	 C41	4.988	0.643	17.474	C.2	1	LIG1	0.000	
20	 C42	3.263	1.666	18.879	C.2	1	LIG1	0.000	
21	 C43	4.654	1.021	21.157	C.2	1	LIG1	0.000	
22	 C44	6.413	0.002	19.709	C.2	1	LIG1	0.000	
23	 C45	4.464	1.003	18.740	C.2	1	LIG1	0.000	
24	 C46	5.176	0.684	19.897	C.2	1	LIG1	0.000	
25	 N47	6.873	5.583	23.732	N.pl3	1	LIG1	0.000	
26	 N48	7.180	-0.254	20.805	N.pl3	1	LIG1	0.000	
27	 N49	8.296	2.444	23.281	N.pl3	1	LIG1	0.000	
28	 C50	6.739	6.641	24.656	C.3	1	LIG1	0.000	
29	 C51	7.297	3.408	23.049	C.3	1	LIG1	0.000	
30	 C52	7.874	-1.789	24.030	C.3	1	LIG1	0.000	
31	 C53	7.041	-1.378	21.657	C.3	1	LIG1	0.000	
32	 C54	7.860	1.104	23.606	C.3	1	LIG1	0.000	
33	 C55	8.109	-1.232	22.692	C.3	1	LIG1	0.000	
34	 C56	8.590	0.164	22.615	C.3	1	LIG1	0.000	
@<TRIPOS>BOND
1 6 19 ar
2 3 7 2
3 4 8 2
4 8 29 1
5 5 9 2
6 9 26 1
7 6 10 ar
8 11 12 ar
9 12 17 ar
10 13 16 ar
11 14 15 ar
12 15 21 ar
13 1 16 1
14 11 16 ar
15 7 17 1
16 13 18 ar
17 17 18 ar
18 19 23 ar
19 14 20 ar
20 21 24 ar
21 10 22 ar
22 22 24 ar
23 20 23 ar
24 23 24 ar
25 8 25 1
26 22 26 1
27 26 31 1
28 7 27 1
29 27 32 1
30 25 28 1
31 27 29 1
32 2 30 1
33 31 33 1
34 32 34 1
35 30 33 1
36 9 34 1
37 18 34 1
38 33 34 1
@<TRIPOS>SUBSTRUCTURE
1	LIG1	1	GROUP	1 C	LIG
