# created with PyMOL 3.1.3.1
@<TRIPOS>MOLECULE
predicted
35 40 1                 
SMALL
USER_CHARGES
@<TRIPOS>ATOM
1	 O25	10.528	3.298	24.052	O.2	1	LIG1	0.000	
2	 O26	8.720	1.393	21.088	O.2	1	LIG1	0.000	
3	 N28	6.307	0.157	17.651	N.2	1	LIG1	0.000	
4	 N29	5.817	3.171	23.278	N.2	1	LIG1	0.000	
5	 C30	10.083	2.158	23.882	C.2	1	LIG1	0.000	
6	 C31	8.332	0.346	21.578	C.2	1	LIG1	0.000	
7	 C32	7.009	-0.234	18.699	C.2	1	LIG1	0.000	
8	 C33	5.364	3.950	22.260	C.2	1	LIG1	0.000	
9	 C34	13.127	0.211	22.921	C.2	1	LIG1	0.000	
10	 C35	12.319	1.233	23.350	C.2	1	LIG1	0.000	
11	 C36	11.182	-1.134	22.415	C.2	1	LIG1	0.000	
12	 C37	2.756	1.656	20.548	C.2	1	LIG1	0.000	
13	 C38	3.448	1.220	21.655	C.2	1	LIG1	0.000	
14	 C39	12.575	-0.960	22.458	C.2	1	LIG1	0.000	
15	 C40	10.941	1.084	23.368	C.2	1	LIG1	0.000	
16	 C41	10.355	-0.128	22.934	C.2	1	LIG1	0.000	
17	 C42	5.097	0.721	17.818	C.2	1	LIG1	0.000	
18	 C43	3.300	1.495	19.284	C.2	1	LIG1	0.000	
19	 C44	4.679	0.643	21.506	C.2	1	LIG1	0.000	
20	 C45	6.538	-0.066	20.006	C.2	1	LIG1	0.000	
21	 C46	7.027	3.569	23.608	C.2	1	LIG1	0.000	
22	 C47	6.321	4.871	21.952	C.2	1	LIG1	0.000	
23	 C48	4.540	0.918	19.101	C.2	1	LIG1	0.000	
24	 C49	5.257	0.503	20.232	C.2	1	LIG1	0.000	
25	 N50	7.327	-0.420	21.089	N.pl3	1	LIG1	0.000	
26	 N51	8.735	1.908	24.119	N.pl3	1	LIG1	0.000	
27	 N52	7.355	4.601	22.838	N.2	1	LIG1	0.000	
28	 C53	7.889	2.914	24.705	C.3	1	LIG1	0.000	
29	 C54	8.578	5.371	22.916	C.3	1	LIG1	0.000	
30	 C55	8.196	-2.432	24.029	C.3	1	LIG1	0.000	
31	 C56	7.199	-1.642	21.814	C.3	1	LIG1	0.000	
32	 C57	8.205	0.540	24.041	C.3	1	LIG1	0.000	
33	 C58	8.346	-1.654	22.781	C.3	1	LIG1	0.000	
34	 C59	8.853	-0.243	22.877	C.3	1	LIG1	0.000	
35	 F27	13.391	-1.928	22.045	 F	1	LIG1	0.000	
@<TRIPOS>BOND
1 3 17 ar
2 4 8 ar
3 1 5 2
4 5 15 1
5 2 6 2
6 6 34 1
7 3 7 ar
8 8 22 ar
9 9 14 ar
10 9 10 ar
11 11 16 ar
12 12 13 ar
13 13 19 ar
14 11 14 ar
15 14 35 1
16 10 15 ar
17 15 16 ar
18 17 23 ar
19 12 18 ar
20 19 24 ar
21 7 20 ar
22 20 24 ar
23 4 21 ar
24 21 27 ar
25 22 27 ar
26 18 23 ar
27 23 24 ar
28 6 25 1
29 20 25 1
30 5 26 1
31 26 28 1
32 27 29 1
33 21 28 1
34 30 33 1
35 25 31 1
36 26 32 1
37 31 33 1
38 33 34 1
39 16 34 1
40 32 34 1
@<TRIPOS>SUBSTRUCTURE
1	LIG1	1	GROUP	1 C	LIG
