# created with PyMOL 3.1.3.1
@<TRIPOS>MOLECULE
predicted
42 48 1                 
SMALL
USER_CHARGES
@<TRIPOS>ATOM
1	CL28	13.572	-1.985	22.090	Cl	1	LIG1	0.000	
2	 O26	10.270	3.387	24.251	O.2	1	LIG1	0.000	
3	 O27	8.603	1.501	21.251	O.2	1	LIG1	0.000	
4	 N29	4.795	4.008	23.256	N.2	1	LIG1	0.000	
5	 N30	5.422	3.318	24.279	N.2	1	LIG1	0.000	
6	 N31	3.884	-4.764	24.400	N.2	1	LIG1	0.000	
7	 N32	5.605	-3.206	24.632	N.2	1	LIG1	0.000	
8	 N33	6.269	0.089	17.688	N.2	1	LIG1	0.000	
9	 O34	6.950	4.261	23.025	O.2	1	LIG1	0.000	
10	 C35	9.869	2.230	24.083	C.2	1	LIG1	0.000	
11	 C36	8.269	0.417	21.701	C.2	1	LIG1	0.000	
12	 C37	4.347	-3.542	24.773	C.2	1	LIG1	0.000	
13	 C38	5.747	4.578	22.525	C.2	1	LIG1	0.000	
14	 C39	6.690	3.489	24.112	C.2	1	LIG1	0.000	
15	 C40	4.748	-5.689	23.900	C.2	1	LIG1	0.000	
16	 C41	6.977	-0.302	18.750	C.2	1	LIG1	0.000	
17	 C42	6.504	-4.091	24.112	C.2	1	LIG1	0.000	
18	 C43	6.101	-5.370	23.749	C.2	1	LIG1	0.000	
19	 C44	12.972	0.392	23.129	C.2	1	LIG1	0.000	
20	 C45	12.132	1.388	23.558	C.2	1	LIG1	0.000	
21	 C46	11.092	-1.005	22.574	C.2	1	LIG1	0.000	
22	 C47	2.881	1.853	20.582	C.2	1	LIG1	0.000	
23	 C48	3.593	1.458	21.698	C.2	1	LIG1	0.000	
24	 C49	12.465	-0.795	22.635	C.2	1	LIG1	0.000	
25	 C50	10.770	1.198	23.556	C.2	1	LIG1	0.000	
26	 C51	10.247	-0.026	23.089	C.2	1	LIG1	0.000	
27	 C52	5.091	0.678	17.865	C.2	1	LIG1	0.000	
28	 C53	3.375	1.592	19.319	C.2	1	LIG1	0.000	
29	 C54	4.785	0.834	21.562	C.2	1	LIG1	0.000	
30	 C55	6.547	-0.044	20.061	C.2	1	LIG1	0.000	
31	 C56	4.575	0.962	19.143	C.2	1	LIG1	0.000	
32	 C57	5.298	0.585	20.288	C.2	1	LIG1	0.000	
33	 N58	7.805	-3.753	23.956	N.pl3	1	LIG1	0.000	
34	 N59	7.331	-0.394	21.152	N.pl3	1	LIG1	0.000	
35	 N60	8.551	1.918	24.328	N.pl3	1	LIG1	0.000	
36	 C61	5.476	5.395	21.345	C.3	1	LIG1	0.000	
37	 C62	7.742	2.894	24.997	C.3	1	LIG1	0.000	
38	 C63	8.273	-2.373	24.119	C.3	1	LIG1	0.000	
39	 C64	7.257	-1.626	21.832	C.3	1	LIG1	0.000	
40	 C65	8.060	0.563	24.192	C.3	1	LIG1	0.000	
41	 C66	8.310	-1.605	22.885	C.3	1	LIG1	0.000	
42	 C67	8.754	-0.186	23.012	C.3	1	LIG1	0.000	
@<TRIPOS>BOND
1 4 5 ar
2 5 14 ar
3 6 12 ar
4 8 27 ar
5 2 10 2
6 3 11 2
7 11 34 1
8 7 12 ar
9 4 13 ar
10 9 13 ar
11 9 14 ar
12 14 37 1
13 6 15 ar
14 8 16 ar
15 7 17 ar
16 17 18 ar
17 15 18 ar
18 19 20 ar
19 20 25 ar
20 21 24 ar
21 22 23 ar
22 23 29 ar
23 1 24 1
24 19 24 ar
25 10 25 1
26 21 26 ar
27 25 26 ar
28 27 31 ar
29 22 28 ar
30 29 32 ar
31 16 30 ar
32 30 32 ar
33 28 31 ar
34 31 32 ar
35 17 33 1
36 30 34 1
37 34 39 1
38 10 35 1
39 35 40 1
40 13 36 1
41 35 37 1
42 33 38 1
43 39 41 1
44 40 42 1
45 38 41 1
46 11 42 1
47 26 42 1
48 41 42 1
@<TRIPOS>SUBSTRUCTURE
1	LIG1	1	GROUP	1 C	LIG
