# created with PyMOL 3.1.3.1
@<TRIPOS>MOLECULE
predicted
34 39 1                 
SMALL
USER_CHARGES
@<TRIPOS>ATOM
1	 O22	10.521	3.123	23.794	O.2	1	LIG1	0.000	
2	 O23	8.750	1.192	20.948	O.2	1	LIG1	0.000	
3	 N25	7.632	4.521	22.749	N.2	1	LIG1	0.000	
4	 N26	6.275	0.009	17.526	N.2	1	LIG1	0.000	
5	 O27	6.114	3.002	22.840	O.2	1	LIG1	0.000	
6	 C28	10.098	1.969	23.683	C.2	1	LIG1	0.000	
7	 C29	8.370	0.152	21.445	C.2	1	LIG1	0.000	
8	 C30	7.211	3.423	23.344	C.2	1	LIG1	0.000	
9	 C31	6.697	4.828	21.771	C.2	1	LIG1	0.000	
10	 C32	6.992	-0.394	18.562	C.2	1	LIG1	0.000	
11	 C33	5.759	3.848	21.823	C.2	1	LIG1	0.000	
12	 C34	13.145	0.022	22.797	C.2	1	LIG1	0.000	
13	 C35	12.339	1.054	23.184	C.2	1	LIG1	0.000	
14	 C36	11.223	-1.348	22.324	C.2	1	LIG1	0.000	
15	 C37	2.829	1.612	20.476	C.2	1	LIG1	0.000	
16	 C38	3.535	1.166	21.574	C.2	1	LIG1	0.000	
17	 C39	12.607	-1.170	22.375	C.2	1	LIG1	0.000	
18	 C40	10.966	0.887	23.198	C.2	1	LIG1	0.000	
19	 C41	10.384	-0.334	22.796	C.2	1	LIG1	0.000	
20	 C42	5.088	0.595	17.706	C.2	1	LIG1	0.000	
21	 C43	3.340	1.422	19.195	C.2	1	LIG1	0.000	
22	 C44	4.744	0.554	21.403	C.2	1	LIG1	0.000	
23	 C45	6.553	-0.224	19.872	C.2	1	LIG1	0.000	
24	 C46	4.567	0.808	19.000	C.2	1	LIG1	0.000	
25	 C47	5.294	0.381	20.118	C.2	1	LIG1	0.000	
26	 N48	7.347	-0.593	20.947	N.pl3	1	LIG1	0.000	
27	 N49	8.759	1.693	23.952	N.pl3	1	LIG1	0.000	
28	 C50	7.910	2.724	24.491	C.3	1	LIG1	0.000	
29	 C51	8.219	-2.641	23.860	C.3	1	LIG1	0.000	
30	 C52	7.205	-1.818	21.674	C.3	1	LIG1	0.000	
31	 C53	8.246	0.324	23.920	C.3	1	LIG1	0.000	
32	 C54	8.368	-1.847	22.632	C.3	1	LIG1	0.000	
33	 C55	8.888	-0.446	22.734	C.3	1	LIG1	0.000	
34	 F24	13.431	-2.145	22.008	 F	1	LIG1	0.000	
@<TRIPOS>BOND
1 3 9 ar
2 4 20 ar
3 1 6 2
4 6 18 1
5 2 7 2
6 7 33 1
7 3 8 ar
8 5 8 ar
9 9 11 ar
10 4 10 ar
11 5 11 ar
12 12 17 ar
13 12 13 ar
14 14 19 ar
15 15 16 ar
16 16 22 ar
17 14 17 ar
18 17 34 1
19 13 18 ar
20 18 19 ar
21 20 24 ar
22 15 21 ar
23 22 25 ar
24 10 23 ar
25 23 25 ar
26 21 24 ar
27 24 25 ar
28 7 26 1
29 23 26 1
30 6 27 1
31 27 28 1
32 8 28 1
33 29 32 1
34 26 30 1
35 27 31 1
36 30 32 1
37 32 33 1
38 19 33 1
39 31 33 1
@<TRIPOS>SUBSTRUCTURE
1	LIG1	1	GROUP	1 C	LIG
