# created with PyMOL 3.1.3.1
@<TRIPOS>MOLECULE
predicted
24 27 1                 
SMALL
USER_CHARGES
@<TRIPOS>ATOM
1	 O24	8.202	1.220	20.633	O.2	1	LIG1	0.000	
2	 N26	5.817	0.264	17.209	N.2	1	LIG1	0.000	
3	 C27	8.049	0.086	21.075	C.2	1	LIG1	0.000	
4	 C28	6.488	-0.281	18.220	C.2	1	LIG1	0.000	
5	 C29	2.642	2.084	20.262	C.2	1	LIG1	0.000	
6	 C30	3.306	1.539	21.308	C.2	1	LIG1	0.000	
7	 C31	4.728	0.946	17.419	C.2	1	LIG1	0.000	
8	 C32	3.092	1.905	18.968	C.2	1	LIG1	0.000	
9	 C33	4.444	0.823	21.122	C.2	1	LIG1	0.000	
10	 C34	6.094	-0.144	19.525	C.2	1	LIG1	0.000	
11	 C35	4.241	1.169	18.725	C.2	1	LIG1	0.000	
12	 C36	4.936	0.615	19.820	C.2	1	LIG1	0.000	
13	 N37	8.857	-0.434	21.988	N.pl3	1	LIG1	0.000	
14	 C38	6.928	-0.777	20.610	C.3	1	LIG1	0.000	
15	 C39	9.864	0.328	22.657	C.3	1	LIG1	0.000	
16	 C40	13.140	-0.916	22.678	C.3	1	LIG1	0.000	
17	 C41	12.986	-0.648	24.153	C.3	1	LIG1	0.000	
18	 C42	11.788	-1.193	22.185	C.3	1	LIG1	0.000	
19	 C43	11.480	-0.465	24.410	C.3	1	LIG1	0.000	
20	 C44	9.010	-1.993	24.727	C.3	1	LIG1	0.000	
21	 C45	8.803	-1.851	22.358	C.3	1	LIG1	0.000	
22	 C46	10.765	-0.842	23.221	C.3	1	LIG1	0.000	
23	 C47	9.798	-2.010	23.464	C.3	1	LIG1	0.000	
24	 F25	8.321	-3.158	24.925	 F	1	LIG1	0.000	
@<TRIPOS>BOND
1 1 3 2
2 2 7 ar
3 3 13 1
4 3 14 1
5 2 4 ar
6 5 6 ar
7 6 9 ar
8 7 11 ar
9 5 8 ar
10 9 12 ar
11 4 10 ar
12 10 12 ar
13 8 11 ar
14 11 12 ar
15 13 15 1
16 13 21 1
17 10 14 1
18 16 17 1
19 17 19 1
20 16 18 1
21 20 24 1
22 21 23 1
23 15 22 1
24 18 22 1
25 19 22 1
26 20 23 1
27 22 23 1
@<TRIPOS>SUBSTRUCTURE
1	LIG1	1	GROUP	1 C	LIG
