# created with PyMOL 3.1.3.1
@<TRIPOS>MOLECULE
predicted
39 43 1                 
SMALL
USER_CHARGES
@<TRIPOS>ATOM
1	CL33	13.494	-0.453	21.859	Cl	1	LIG1	0.000	
2	 O29	4.803	-2.257	26.367	O.2	1	LIG1	0.000	
3	 O30	8.510	0.431	20.998	O.2	1	LIG1	0.000	
4	 N34	6.272	0.256	17.106	N.2	1	LIG1	0.000	
5	 C35	5.728	-1.928	25.770	C.2	1	LIG1	0.000	
6	 C36	7.989	-0.631	21.179	C.2	1	LIG1	0.000	
7	 C37	6.816	-0.407	18.132	C.2	1	LIG1	0.000	
8	 C38	12.343	-1.738	23.859	C.2	1	LIG1	0.000	
9	 C39	1.172	1.139	24.441	C.2	1	LIG1	0.000	
10	 C40	2.795	2.862	24.078	C.2	1	LIG1	0.000	
11	 C41	2.037	0.548	25.370	C.2	1	LIG1	0.000	
12	 C42	3.657	2.266	25.008	C.2	1	LIG1	0.000	
13	 C43	11.283	-2.266	24.541	C.2	1	LIG1	0.000	
14	 C44	10.887	-1.071	22.119	C.2	1	LIG1	0.000	
15	 C45	2.974	2.001	20.051	C.2	1	LIG1	0.000	
16	 C46	3.552	1.341	21.112	C.2	1	LIG1	0.000	
17	 C47	12.141	-1.137	22.656	C.2	1	LIG1	0.000	
18	 C48	1.537	2.319	23.764	C.2	1	LIG1	0.000	
19	 C49	3.258	1.114	25.648	C.2	1	LIG1	0.000	
20	 C50	9.986	-2.197	24.008	C.2	1	LIG1	0.000	
21	 C51	9.773	-1.565	22.784	C.2	1	LIG1	0.000	
22	 C52	5.187	0.974	17.289	C.2	1	LIG1	0.000	
23	 C53	3.503	1.905	18.794	C.2	1	LIG1	0.000	
24	 C54	4.649	0.578	20.953	C.2	1	LIG1	0.000	
25	 C55	6.337	-0.336	19.411	C.2	1	LIG1	0.000	
26	 C56	4.617	1.120	18.574	C.2	1	LIG1	0.000	
27	 C57	5.197	0.444	19.660	C.2	1	LIG1	0.000	
28	 N58	6.943	-1.084	20.452	N.pl3	1	LIG1	0.000	
29	 N59	6.085	-0.621	25.757	N.pl3	1	LIG1	0.000	
30	 C60	0.657	2.957	22.791	C.3	1	LIG1	0.000	
31	 C61	4.079	0.478	26.701	C.3	1	LIG1	0.000	
32	 C62	5.523	0.432	26.553	C.3	1	LIG1	0.000	
33	 C63	6.499	-2.945	25.002	C.3	1	LIG1	0.000	
34	 C64	8.862	-2.791	24.794	C.3	1	LIG1	0.000	
35	 C65	7.367	-1.749	23.206	C.3	1	LIG1	0.000	
36	 C66	8.428	-1.580	22.206	C.3	1	LIG1	0.000	
37	 N67	7.567	-2.558	24.220	N.3	1	LIG1	0.000	
38	 F31	0.715	4.229	22.620	 F	1	LIG1	0.000	
39	 F32	-0.239	2.293	22.232	 F	1	LIG1	0.000	
@<TRIPOS>BOND
1 2 5 2
2 4 22 ar
3 5 29 1
4 5 33 1
5 3 6 2
6 6 28 1
7 4 7 ar
8 8 17 ar
9 9 18 ar
10 10 12 ar
11 9 11 ar
12 8 13 ar
13 14 21 ar
14 15 16 ar
15 16 24 ar
16 1 17 1
17 14 17 ar
18 10 18 ar
19 18 30 1
20 11 19 ar
21 12 19 ar
22 13 20 ar
23 20 21 ar
24 21 36 1
25 22 26 ar
26 15 23 ar
27 24 27 ar
28 7 25 ar
29 25 27 ar
30 23 26 ar
31 26 27 ar
32 25 28 1
33 29 32 1
34 30 38 1
35 30 39 1
36 19 31 1
37 31 32 1
38 33 37 1
39 20 34 1
40 6 36 1
41 35 36 1
42 34 37 1
43 35 37 1
@<TRIPOS>SUBSTRUCTURE
1	LIG1	1	GROUP	1 C	LIG
