# created with PyMOL 3.1.3.1
@<TRIPOS>MOLECULE
predicted
37 42 1                 
SMALL
USER_CHARGES
@<TRIPOS>ATOM
1	CL35	-13.899	-3.907	-22.265	Cl	1	LIG1	0.000	
2	 O33	-10.944	1.774	-24.133	O.2	1	LIG1	0.000	
3	 O34	-9.164	0.002	-21.225	O.2	1	LIG1	0.000	
4	 N36	-6.713	-1.038	-17.696	N.2	1	LIG1	0.000	
5	 O37	-6.466	6.025	-22.887	O.3	1	LIG1	0.000	
6	 C38	-10.483	0.645	-24.002	C.2	1	LIG1	0.000	
7	 C39	-8.737	-1.047	-21.682	C.2	1	LIG1	0.000	
8	 C40	-7.387	-1.505	-18.731	C.2	1	LIG1	0.000	
9	 C41	-13.459	-1.453	-23.201	C.2	1	LIG1	0.000	
10	 C42	-12.690	-0.385	-23.578	C.2	1	LIG1	0.000	
11	 C43	-11.487	-2.693	-22.616	C.2	1	LIG1	0.000	
12	 C44	-3.407	0.815	-20.654	C.2	1	LIG1	0.000	
13	 C45	-4.089	0.340	-21.754	C.2	1	LIG1	0.000	
14	 C46	-12.875	-2.600	-22.713	C.2	1	LIG1	0.000	
15	 C47	-11.318	-0.477	-23.545	C.2	1	LIG1	0.000	
16	 C48	-10.688	-1.652	-23.080	C.2	1	LIG1	0.000	
17	 C49	-5.562	-0.375	-17.897	C.2	1	LIG1	0.000	
18	 C50	-3.887	0.578	-19.386	C.2	1	LIG1	0.000	
19	 C51	-5.234	-0.348	-21.576	C.2	1	LIG1	0.000	
20	 C52	-6.964	-1.304	-20.051	C.2	1	LIG1	0.000	
21	 C53	-5.052	-0.121	-19.192	C.2	1	LIG1	0.000	
22	 C54	-5.756	-0.595	-20.297	C.2	1	LIG1	0.000	
23	 N55	-7.716	-1.747	-21.125	N.pl3	1	LIG1	0.000	
24	 N56	-9.109	0.449	-24.176	N.pl3	1	LIG1	0.000	
25	 C57	-5.969	4.986	-22.010	C.3	1	LIG1	0.000	
26	 C58	-8.268	1.524	-24.547	C.3	1	LIG1	0.000	
27	 C59	-8.234	6.804	-24.322	C.3	1	LIG1	0.000	
28	 C60	-8.368	-3.838	-24.042	C.3	1	LIG1	0.000	
29	 C61	-7.523	-2.984	-21.792	C.3	1	LIG1	0.000	
30	 C62	-8.564	-0.881	-24.137	C.3	1	LIG1	0.000	
31	 C63	-6.119	3.637	-22.500	C.3	1	LIG1	0.000	
32	 C64	-7.683	2.088	-23.279	C.2	1	LIG1	0.000	
33	 C65	-7.891	4.377	-23.973	C.3	1	LIG1	0.000	
34	 C66	-7.838	5.720	-23.376	C.3	1	LIG1	0.000	
35	 C67	-8.624	-3.058	-22.834	C.3	1	LIG1	0.000	
36	 C68	-9.191	-1.680	-22.965	C.3	1	LIG1	0.000	
37	 N69	-7.336	3.389	-23.195	N.pl3	1	LIG1	0.000	
@<TRIPOS>BOND
1 4 17 ar
2 2 6 2
3 3 7 2
4 7 23 1
5 4 8 ar
6 9 10 ar
7 10 15 ar
8 11 14 ar
9 12 13 ar
10 13 19 ar
11 1 14 1
12 9 14 ar
13 6 15 1
14 11 16 ar
15 15 16 ar
16 17 21 ar
17 12 18 ar
18 19 22 ar
19 8 20 ar
20 20 22 ar
21 18 21 ar
22 21 22 ar
23 20 23 1
24 23 29 1
25 6 24 1
26 24 30 1
27 5 25 1
28 24 26 1
29 27 34 1
30 29 35 1
31 30 36 1
32 25 31 1
33 26 32 1
34 33 37 1
35 5 34 1
36 33 34 1
37 28 35 1
38 7 36 1
39 16 36 1
40 35 36 1
41 31 37 1
42 32 37 2
@<TRIPOS>SUBSTRUCTURE
1	LIG1	1	GROUP	1 C	LIG
