# created with PyMOL 3.1.3.1
@<TRIPOS>MOLECULE
predicted
41 47 1                 
SMALL
USER_CHARGES
@<TRIPOS>ATOM
1	CL26	13.335	-1.962	22.137	Cl	1	LIG1	0.000	
2	 O24	10.092	3.614	23.833	O.2	1	LIG1	0.000	
3	 O25	8.411	1.506	20.984	O.2	1	LIG1	0.000	
4	 N27	6.939	-6.007	22.203	N.2	1	LIG1	0.000	
5	 N28	7.573	-4.998	22.835	N.2	1	LIG1	0.000	
6	 N29	5.374	5.441	21.589	N.2	1	LIG1	0.000	
7	 N30	6.635	5.793	21.951	N.2	1	LIG1	0.000	
8	 N31	6.042	0.077	17.557	N.2	1	LIG1	0.000	
9	 S32	5.322	-5.072	23.638	S.2	1	LIG1	0.000	
10	 C33	9.673	2.457	23.755	C.2	1	LIG1	0.000	
11	 C34	8.021	0.479	21.534	C.2	1	LIG1	0.000	
12	 C35	5.749	-6.163	22.529	C.2	1	LIG1	0.000	
13	 C36	6.794	-4.349	23.699	C.2	1	LIG1	0.000	
14	 C37	4.807	4.376	22.124	C.2	1	LIG1	0.000	
15	 C38	7.287	5.135	22.921	C.2	1	LIG1	0.000	
16	 C39	6.731	-0.267	18.646	C.2	1	LIG1	0.000	
17	 C40	12.765	0.499	22.919	C.2	1	LIG1	0.000	
18	 C41	11.935	1.542	23.261	C.2	1	LIG1	0.000	
19	 C42	5.437	3.656	23.145	C.2	1	LIG1	0.000	
20	 C43	10.850	-0.922	22.522	C.2	1	LIG1	0.000	
21	 C44	2.510	1.831	20.307	C.2	1	LIG1	0.000	
22	 C45	3.188	1.471	21.458	C.2	1	LIG1	0.000	
23	 C46	12.242	-0.723	22.539	C.2	1	LIG1	0.000	
24	 C47	10.564	1.356	23.298	C.2	1	LIG1	0.000	
25	 C48	6.743	3.991	23.489	C.2	1	LIG1	0.000	
26	 C49	10.012	0.101	22.953	C.2	1	LIG1	0.000	
27	 C50	4.856	0.651	17.679	C.2	1	LIG1	0.000	
28	 C51	3.058	1.561	19.051	C.2	1	LIG1	0.000	
29	 C52	4.402	0.854	21.372	C.2	1	LIG1	0.000	
30	 C53	6.268	-0.019	19.943	C.2	1	LIG1	0.000	
31	 C54	4.291	0.941	18.933	C.2	1	LIG1	0.000	
32	 C55	4.984	0.600	20.110	C.2	1	LIG1	0.000	
33	 N56	7.100	-3.245	24.506	N.pl3	1	LIG1	0.000	
34	 N57	7.036	-0.334	21.055	N.pl3	1	LIG1	0.000	
35	 N58	8.332	2.182	24.030	N.pl3	1	LIG1	0.000	
36	 C59	7.479	3.223	24.572	C.3	1	LIG1	0.000	
37	 C60	7.834	-2.071	24.249	C.3	1	LIG1	0.000	
38	 C61	6.896	-1.510	21.849	C.3	1	LIG1	0.000	
39	 C62	7.833	0.827	24.010	C.3	1	LIG1	0.000	
40	 C63	8.006	-1.456	22.903	C.3	1	LIG1	0.000	
41	 C64	8.494	-0.042	22.886	C.3	1	LIG1	0.000	
@<TRIPOS>BOND
1 2 10 2
2 4 12 ar
3 4 5 ar
4 6 7 ar
5 7 15 ar
6 8 27 ar
7 10 24 1
8 10 35 1
9 3 11 2
10 11 34 1
11 9 12 ar
12 5 13 ar
13 9 13 ar
14 6 14 ar
15 8 16 ar
16 17 23 ar
17 17 18 ar
18 14 19 ar
19 20 26 ar
20 21 22 ar
21 22 29 ar
22 1 23 1
23 20 23 ar
24 18 24 ar
25 24 26 ar
26 15 25 ar
27 19 25 ar
28 26 41 1
29 27 31 ar
30 21 28 ar
31 29 32 ar
32 16 30 ar
33 30 32 ar
34 28 31 ar
35 31 32 ar
36 13 33 1
37 30 34 1
38 34 38 1
39 35 36 1
40 25 36 1
41 33 37 1
42 38 40 1
43 35 39 1
44 37 40 1
45 11 41 1
46 39 41 1
47 40 41 1
@<TRIPOS>SUBSTRUCTURE
1	LIG1	1	GROUP	1 C	LIG
