# created with PyMOL 3.1.3.1
@<TRIPOS>MOLECULE
predicted
36 40 1                 
SMALL
USER_CHARGES
@<TRIPOS>ATOM
1	CL29	13.419	-2.114	22.432	Cl	1	LIG1	0.000	
2	 O25	10.319	3.690	23.127	O.2	1	LIG1	0.000	
3	 O26	7.699	-3.811	23.557	O.2	1	LIG1	0.000	
4	 O27	8.324	5.205	24.167	O.2	1	LIG1	0.000	
5	 O28	8.642	1.546	20.675	O.2	1	LIG1	0.000	
6	 N30	6.249	0.081	17.321	N.2	1	LIG1	0.000	
7	 C31	9.873	2.569	23.211	C.2	1	LIG1	0.000	
8	 C32	7.504	-2.914	24.350	C.2	1	LIG1	0.000	
9	 C33	7.735	4.666	23.270	C.2	1	LIG1	0.000	
10	 C34	8.239	0.552	21.253	C.2	1	LIG1	0.000	
11	 C35	6.931	-0.240	18.402	C.2	1	LIG1	0.000	
12	 C36	12.927	0.433	22.891	C.2	1	LIG1	0.000	
13	 C37	12.132	1.538	23.054	C.2	1	LIG1	0.000	
14	 C38	10.988	-0.929	22.523	C.2	1	LIG1	0.000	
15	 C39	2.855	2.090	20.048	C.2	1	LIG1	0.000	
16	 C40	3.554	1.775	21.195	C.2	1	LIG1	0.000	
17	 C41	12.361	-0.795	22.607	C.2	1	LIG1	0.000	
18	 C42	10.759	1.419	23.001	C.2	1	LIG1	0.000	
19	 C43	10.162	0.171	22.772	C.2	1	LIG1	0.000	
20	 C44	5.084	0.702	17.439	C.2	1	LIG1	0.000	
21	 C45	3.361	1.734	18.806	C.2	1	LIG1	0.000	
22	 C46	4.731	1.108	21.112	C.2	1	LIG1	0.000	
23	 C47	6.494	0.078	19.687	C.2	1	LIG1	0.000	
24	 C48	4.557	1.070	18.690	C.2	1	LIG1	0.000	
25	 C49	5.260	0.758	19.862	C.2	1	LIG1	0.000	
26	 N50	7.363	5.216	22.101	N.pl3	1	LIG1	0.000	
27	 N51	7.241	-0.227	20.788	N.pl3	1	LIG1	0.000	
28	 N52	8.466	2.358	23.396	N.pl3	1	LIG1	0.000	
29	 N53	7.630	-1.578	23.985	N.pl3	1	LIG1	0.000	
30	 C54	7.104	-3.187	25.759	C.3	1	LIG1	0.000	
31	 C55	7.588	6.565	21.832	C.3	1	LIG1	0.000	
32	 C56	7.411	3.283	23.345	C.3	1	LIG1	0.000	
33	 C57	7.079	-1.384	21.591	C.3	1	LIG1	0.000	
34	 C58	8.001	1.060	23.660	C.3	1	LIG1	0.000	
35	 C59	8.114	-1.265	22.724	C.3	1	LIG1	0.000	
36	 C60	8.656	0.098	22.626	C.3	1	LIG1	0.000	
@<TRIPOS>BOND
1 6 20 ar
2 2 7 2
3 3 8 2
4 8 30 1
5 4 9 2
6 9 32 1
7 5 10 2
8 10 27 1
9 6 11 ar
10 12 13 ar
11 13 18 ar
12 14 17 ar
13 15 16 ar
14 16 22 ar
15 1 17 1
16 12 17 ar
17 7 18 1
18 14 19 ar
19 18 19 ar
20 20 24 ar
21 15 21 ar
22 22 25 ar
23 11 23 ar
24 23 25 ar
25 21 24 ar
26 24 25 ar
27 9 26 1
28 23 27 1
29 27 33 1
30 7 28 1
31 28 34 1
32 8 29 1
33 26 31 1
34 28 32 1
35 33 35 1
36 34 36 1
37 29 35 1
38 10 36 1
39 19 36 1
40 35 36 1
@<TRIPOS>SUBSTRUCTURE
1	LIG1	1	GROUP	1 C	LIG
