# created with PyMOL 3.1.3.1
@<TRIPOS>MOLECULE
predicted
35 40 1                 
SMALL
USER_CHARGES
@<TRIPOS>ATOM
1	 O23	10.292	3.155	24.209	O.2	1	LIG1	0.000	
2	 O24	8.699	1.278	21.223	O.2	1	LIG1	0.000	
3	 N26	5.604	1.708	25.936	N.2	1	LIG1	0.000	
4	 N27	6.294	0.065	17.681	N.2	1	LIG1	0.000	
5	 N28	5.337	1.176	27.205	N.2	1	LIG1	0.000	
6	 N29	7.449	1.738	27.122	N.2	1	LIG1	0.000	
7	 C30	9.936	1.985	24.044	C.2	1	LIG1	0.000	
8	 C31	8.341	0.202	21.660	C.2	1	LIG1	0.000	
9	 C32	6.881	2.027	25.951	C.2	1	LIG1	0.000	
10	 C33	7.010	-0.333	18.723	C.2	1	LIG1	0.000	
11	 C34	13.104	0.151	23.228	C.2	1	LIG1	0.000	
12	 C35	12.248	1.147	23.630	C.2	1	LIG1	0.000	
13	 C36	11.234	-1.247	22.596	C.2	1	LIG1	0.000	
14	 C37	2.842	1.640	20.646	C.2	1	LIG1	0.000	
15	 C38	3.570	1.223	21.754	C.2	1	LIG1	0.000	
16	 C39	12.617	-1.041	22.722	C.2	1	LIG1	0.000	
17	 C40	10.872	0.949	23.564	C.2	1	LIG1	0.000	
18	 C41	10.349	-0.273	23.070	C.2	1	LIG1	0.000	
19	 C42	5.100	0.634	17.859	C.2	1	LIG1	0.000	
20	 C43	3.344	1.448	19.359	C.2	1	LIG1	0.000	
21	 C44	4.779	0.631	21.581	C.2	1	LIG1	0.000	
22	 C45	6.571	-0.169	20.036	C.2	1	LIG1	0.000	
23	 C46	4.575	0.849	19.158	C.2	1	LIG1	0.000	
24	 C47	5.309	0.437	20.288	C.2	1	LIG1	0.000	
25	 N48	7.357	-0.557	21.119	N.pl3	1	LIG1	0.000	
26	 N49	8.570	1.649	24.219	N.pl3	1	LIG1	0.000	
27	 N50	6.487	1.219	27.911	N.2	1	LIG1	0.000	
28	 C51	7.593	2.589	24.665	C.3	1	LIG1	0.000	
29	 C52	6.575	0.812	29.260	C.3	1	LIG1	0.000	
30	 C53	8.249	-2.663	24.033	C.3	1	LIG1	0.000	
31	 C54	7.248	-1.824	21.803	C.3	1	LIG1	0.000	
32	 C55	8.149	0.274	24.138	C.3	1	LIG1	0.000	
33	 C56	8.386	-1.841	22.795	C.3	1	LIG1	0.000	
34	 C57	8.856	-0.432	22.953	C.3	1	LIG1	0.000	
35	 F25	13.480	-1.974	22.350	 F	1	LIG1	0.000	
@<TRIPOS>BOND
1 3 5 ar
2 4 19 ar
3 5 27 ar
4 1 7 2
5 7 17 1
6 2 8 2
7 8 34 1
8 3 9 ar
9 6 9 ar
10 4 10 ar
11 11 16 ar
12 11 12 ar
13 13 18 ar
14 14 15 ar
15 15 21 ar
16 13 16 ar
17 16 35 1
18 12 17 ar
19 17 18 ar
20 19 23 ar
21 14 20 ar
22 21 24 ar
23 10 22 ar
24 22 24 ar
25 20 23 ar
26 23 24 ar
27 8 25 1
28 22 25 1
29 7 26 1
30 26 28 1
31 6 27 ar
32 27 29 1
33 9 28 1
34 30 33 1
35 25 31 1
36 26 32 1
37 31 33 1
38 33 34 1
39 18 34 1
40 32 34 1
@<TRIPOS>SUBSTRUCTURE
1	LIG1	1	GROUP	1 C	LIG
