# created with PyMOL 3.1.3.1
@<TRIPOS>MOLECULE
predicted
40 45 1                 
SMALL
USER_CHARGES
@<TRIPOS>ATOM
1	CL30	13.467	-1.984	22.222	Cl	1	LIG1	0.000	
2	 O27	10.034	3.597	23.217	O.2	1	LIG1	0.000	
3	 O28	7.668	4.970	24.347	O.2	1	LIG1	0.000	
4	 O29	8.489	1.461	20.687	O.2	1	LIG1	0.000	
5	 N31	4.398	-5.602	23.104	N.2	1	LIG1	0.000	
6	 N32	5.529	-3.692	23.817	N.2	1	LIG1	0.000	
7	 N33	6.101	0.019	17.312	N.2	1	LIG1	0.000	
8	 C34	9.639	2.445	23.247	C.2	1	LIG1	0.000	
9	 C35	7.409	4.436	23.303	C.2	1	LIG1	0.000	
10	 C36	8.125	0.437	21.232	C.2	1	LIG1	0.000	
11	 C37	4.419	-4.351	23.610	C.2	1	LIG1	0.000	
12	 C38	5.570	-6.243	22.868	C.2	1	LIG1	0.000	
13	 C39	6.821	-0.328	18.379	C.2	1	LIG1	0.000	
14	 C40	6.741	-4.266	23.558	C.2	1	LIG1	0.000	
15	 C41	6.788	-5.592	23.091	C.2	1	LIG1	0.000	
16	 C42	12.833	0.510	22.823	C.2	1	LIG1	0.000	
17	 C43	11.965	1.552	23.058	C.2	1	LIG1	0.000	
18	 C44	10.963	-0.944	22.385	C.2	1	LIG1	0.000	
19	 C45	2.719	1.927	20.173	C.2	1	LIG1	0.000	
20	 C46	3.439	1.571	21.309	C.2	1	LIG1	0.000	
21	 C47	12.345	-0.734	22.491	C.2	1	LIG1	0.000	
22	 C48	10.595	1.364	23.006	C.2	1	LIG1	0.000	
23	 C49	10.089	0.101	22.706	C.2	1	LIG1	0.000	
24	 C50	4.926	0.621	17.476	C.2	1	LIG1	0.000	
25	 C51	3.210	1.616	18.901	C.2	1	LIG1	0.000	
26	 C52	4.622	0.905	21.177	C.2	1	LIG1	0.000	
27	 C53	6.371	-0.074	19.684	C.2	1	LIG1	0.000	
28	 C54	4.407	0.954	18.747	C.2	1	LIG1	0.000	
29	 C55	5.129	0.606	19.896	C.2	1	LIG1	0.000	
30	 N56	7.393	5.029	22.094	N.pl3	1	LIG1	0.000	
31	 N57	7.917	-3.614	23.753	N.pl3	1	LIG1	0.000	
32	 N58	7.154	-0.376	20.768	N.pl3	1	LIG1	0.000	
33	 N59	8.243	2.154	23.379	N.pl3	1	LIG1	0.000	
34	 C60	7.600	6.398	21.954	C.3	1	LIG1	0.000	
35	 C61	7.150	3.021	23.255	C.3	1	LIG1	0.000	
36	 C62	8.033	-2.143	23.881	C.3	1	LIG1	0.000	
37	 C63	7.064	-1.566	21.544	C.3	1	LIG1	0.000	
38	 C64	7.862	0.822	23.637	C.3	1	LIG1	0.000	
39	 C65	8.126	-1.479	22.595	C.3	1	LIG1	0.000	
40	 C66	8.581	-0.069	22.573	C.3	1	LIG1	0.000	
@<TRIPOS>BOND
1 5 11 ar
2 7 24 ar
3 2 8 2
4 3 9 2
5 9 35 1
6 4 10 2
7 10 32 1
8 6 11 ar
9 5 12 ar
10 7 13 ar
11 6 14 ar
12 14 15 ar
13 12 15 ar
14 16 17 ar
15 17 22 ar
16 18 21 ar
17 19 20 ar
18 20 26 ar
19 1 21 1
20 16 21 ar
21 8 22 1
22 18 23 ar
23 22 23 ar
24 24 28 ar
25 19 25 ar
26 26 29 ar
27 13 27 ar
28 27 29 ar
29 25 28 ar
30 28 29 ar
31 9 30 1
32 14 31 1
33 27 32 1
34 32 37 1
35 8 33 1
36 33 38 1
37 30 34 1
38 33 35 1
39 31 36 1
40 37 39 1
41 38 40 1
42 36 39 1
43 10 40 1
44 23 40 1
45 39 40 1
@<TRIPOS>SUBSTRUCTURE
1	LIG1	1	GROUP	1 C	LIG
