# created with PyMOL 3.1.3.1
@<TRIPOS>MOLECULE
predicted
35 40 1                 
SMALL
USER_CHARGES
@<TRIPOS>ATOM
1	 O23	10.436	3.269	23.815	O.2	1	LIG1	0.000	
2	 O24	8.668	1.353	20.907	O.2	1	LIG1	0.000	
3	 N26	5.576	4.966	21.537	N.2	1	LIG1	0.000	
4	 N27	5.696	3.493	23.391	N.2	1	LIG1	0.000	
5	 N28	6.203	0.160	17.478	N.2	1	LIG1	0.000	
6	 C29	9.997	2.122	23.677	C.2	1	LIG1	0.000	
7	 C30	8.272	0.309	21.393	C.2	1	LIG1	0.000	
8	 C31	5.002	4.171	22.454	C.2	1	LIG1	0.000	
9	 C32	6.886	5.124	21.561	C.2	1	LIG1	0.000	
10	 C33	6.907	-0.234	18.521	C.2	1	LIG1	0.000	
11	 C34	7.026	3.628	23.426	C.2	1	LIG1	0.000	
12	 C35	7.666	4.445	22.520	C.2	1	LIG1	0.000	
13	 C36	13.058	0.135	22.811	C.2	1	LIG1	0.000	
14	 C37	12.254	1.181	23.198	C.2	1	LIG1	0.000	
15	 C38	11.114	-1.210	22.305	C.2	1	LIG1	0.000	
16	 C39	2.732	1.778	20.394	C.2	1	LIG1	0.000	
17	 C40	3.429	1.345	21.503	C.2	1	LIG1	0.000	
18	 C41	12.507	-1.051	22.361	C.2	1	LIG1	0.000	
19	 C42	10.867	1.032	23.190	C.2	1	LIG1	0.000	
20	 C43	10.275	-0.188	22.785	C.2	1	LIG1	0.000	
21	 C44	5.013	0.748	17.658	C.2	1	LIG1	0.000	
22	 C45	3.250	1.578	19.125	C.2	1	LIG1	0.000	
23	 C46	4.640	0.740	21.353	C.2	1	LIG1	0.000	
24	 C47	6.461	-0.053	19.833	C.2	1	LIG1	0.000	
25	 C48	4.473	0.971	18.941	C.2	1	LIG1	0.000	
26	 C49	5.192	0.554	20.067	C.2	1	LIG1	0.000	
27	 N50	7.247	-0.428	20.907	N.pl3	1	LIG1	0.000	
28	 N51	8.648	1.871	23.923	N.pl3	1	LIG1	0.000	
29	 C52	7.818	2.892	24.496	C.3	1	LIG1	0.000	
30	 C53	8.076	-2.460	23.858	C.3	1	LIG1	0.000	
31	 C54	7.092	-1.649	21.634	C.3	1	LIG1	0.000	
32	 C55	8.118	0.516	23.854	C.3	1	LIG1	0.000	
33	 C56	8.254	-1.684	22.601	C.3	1	LIG1	0.000	
34	 C57	8.776	-0.281	22.699	C.3	1	LIG1	0.000	
35	 F25	13.327	-2.027	22.011	 F	1	LIG1	0.000	
@<TRIPOS>BOND
1 3 8 ar
2 5 21 ar
3 1 6 2
4 6 19 1
5 2 7 2
6 7 34 1
7 4 8 ar
8 3 9 ar
9 5 10 ar
10 4 11 ar
11 11 12 ar
12 9 12 ar
13 13 18 ar
14 13 14 ar
15 15 20 ar
16 16 17 ar
17 17 23 ar
18 15 18 ar
19 18 35 1
20 14 19 ar
21 19 20 ar
22 21 25 ar
23 16 22 ar
24 23 26 ar
25 10 24 ar
26 24 26 ar
27 22 25 ar
28 25 26 ar
29 7 27 1
30 24 27 1
31 6 28 1
32 28 29 1
33 11 29 1
34 30 33 1
35 27 31 1
36 28 32 1
37 31 33 1
38 33 34 1
39 20 34 1
40 32 34 1
@<TRIPOS>SUBSTRUCTURE
1	LIG1	1	GROUP	1 C	LIG
