# created with PyMOL 3.1.3.1
@<TRIPOS>MOLECULE
predicted
26 29 1                 
SMALL
USER_CHARGES
@<TRIPOS>ATOM
1	CL19	-13.827	-3.081	-22.408	Cl	1	LIG1	0.000	
2	 O17	-8.562	0.109	-25.002	O.2	1	LIG1	0.000	
3	 O18	-8.715	-1.092	-21.129	O.2	1	LIG1	0.000	
4	 N20	-6.476	-0.983	-17.508	N.2	1	LIG1	0.000	
5	 C21	-8.700	-0.970	-24.478	C.2	1	LIG1	0.000	
6	 C22	-8.158	-2.099	-21.429	C.2	1	LIG1	0.000	
7	 C23	-7.002	-1.696	-18.491	C.2	1	LIG1	0.000	
8	 C24	-12.392	-1.400	-23.857	C.2	1	LIG1	0.000	
9	 C25	-11.215	-0.892	-24.344	C.2	1	LIG1	0.000	
10	 C26	-11.170	-2.966	-22.545	C.2	1	LIG1	0.000	
11	 C27	-3.209	0.697	-20.518	C.2	1	LIG1	0.000	
12	 C28	-3.750	-0.023	-21.533	C.2	1	LIG1	0.000	
13	 C29	-12.373	-2.437	-22.967	C.2	1	LIG1	0.000	
14	 C30	-9.997	-1.427	-23.944	C.2	1	LIG1	0.000	
15	 C31	-9.971	-2.511	-23.070	C.2	1	LIG1	0.000	
16	 C32	-5.408	-0.237	-17.716	C.2	1	LIG1	0.000	
17	 C33	-3.736	0.646	-19.258	C.2	1	LIG1	0.000	
18	 C34	-4.817	-0.812	-21.324	C.2	1	LIG1	0.000	
19	 C35	-6.504	-1.696	-19.767	C.2	1	LIG1	0.000	
20	 C36	-4.836	-0.152	-19.003	C.2	1	LIG1	0.000	
21	 C37	-5.392	-0.893	-20.047	C.2	1	LIG1	0.000	
22	 N38	-7.071	-2.483	-20.790	N.pl3	1	LIG1	0.000	
23	 N39	-7.585	-1.765	-24.321	N.pl3	1	LIG1	0.000	
24	 C40	-6.347	-1.385	-24.899	C.3	1	LIG1	0.000	
25	 C41	-7.679	-3.060	-23.660	C.3	1	LIG1	0.000	
26	 C42	-8.669	-3.035	-22.544	C.3	1	LIG1	0.000	
@<TRIPOS>BOND
1 4 16 ar
2 2 5 2
3 3 6 2
4 6 22 1
5 4 7 ar
6 8 9 ar
7 9 14 ar
8 10 13 ar
9 11 12 ar
10 12 18 ar
11 1 13 1
12 8 13 ar
13 5 14 1
14 10 15 ar
15 14 15 ar
16 16 20 ar
17 11 17 ar
18 18 21 ar
19 7 19 ar
20 19 21 ar
21 17 20 ar
22 20 21 ar
23 19 22 1
24 5 23 1
25 23 25 1
26 23 24 1
27 25 26 1
28 6 26 1
29 15 26 1
@<TRIPOS>SUBSTRUCTURE
1	LIG1	1	GROUP	1 C	LIG
