# created with PyMOL 3.1.3.1
@<TRIPOS>MOLECULE
predicted
34 39 1                 
SMALL
USER_CHARGES
@<TRIPOS>ATOM
1	CL25	13.408	-1.921	22.010	Cl	1	LIG1	0.000	
2	 O23	10.061	3.593	23.775	O.2	1	LIG1	0.000	
3	 O24	8.482	1.495	20.892	O.2	1	LIG1	0.000	
4	 N26	6.185	0.095	17.455	N.2	1	LIG1	0.000	
5	 N27	5.303	3.898	23.282	N.2	1	LIG1	0.000	
6	 C28	9.687	2.414	23.687	C.2	1	LIG1	0.000	
7	 C29	8.087	0.473	21.446	C.2	1	LIG1	0.000	
8	 C30	6.861	-0.255	18.528	C.2	1	LIG1	0.000	
9	 C31	6.595	3.725	23.267	C.2	1	LIG1	0.000	
10	 C32	12.835	0.535	22.861	C.2	1	LIG1	0.000	
11	 C33	11.989	1.554	23.225	C.2	1	LIG1	0.000	
12	 C34	10.936	-0.905	22.394	C.2	1	LIG1	0.000	
13	 C35	2.580	1.718	20.209	C.2	1	LIG1	0.000	
14	 C36	3.265	1.360	21.355	C.2	1	LIG1	0.000	
15	 C37	7.108	4.200	22.109	C.2	1	LIG1	0.000	
16	 C38	12.316	-0.682	22.443	C.2	1	LIG1	0.000	
17	 C39	10.613	1.342	23.231	C.2	1	LIG1	0.000	
18	 C40	10.087	0.097	22.851	C.2	1	LIG1	0.000	
19	 C41	4.969	0.660	17.567	C.2	1	LIG1	0.000	
20	 C42	3.143	1.498	18.961	C.2	1	LIG1	0.000	
21	 C43	4.498	0.792	21.251	C.2	1	LIG1	0.000	
22	 C44	6.379	0.003	19.810	C.2	1	LIG1	0.000	
23	 C45	6.007	4.653	21.364	C.2	1	LIG1	0.000	
24	 C46	4.392	0.917	18.831	C.2	1	LIG1	0.000	
25	 C47	5.088	0.568	19.988	C.2	1	LIG1	0.000	
26	 N48	7.130	-0.320	20.927	N.pl3	1	LIG1	0.000	
27	 N49	8.334	2.107	23.949	N.pl3	1	LIG1	0.000	
28	 N50	4.962	4.460	22.094	N.2	1	LIG1	0.000	
29	 C51	7.418	3.128	24.426	C.3	1	LIG1	0.000	
30	 C52	3.636	4.833	21.734	C.3	1	LIG1	0.000	
31	 C53	7.020	-1.557	21.668	C.3	1	LIG1	0.000	
32	 C54	7.873	0.722	23.932	C.3	1	LIG1	0.000	
33	 C55	8.090	-1.434	22.779	C.3	1	LIG1	0.000	
34	 C56	8.589	-0.045	22.770	C.3	1	LIG1	0.000	
@<TRIPOS>BOND
1 4 19 ar
2 2 6 2
3 3 7 2
4 4 8 ar
5 5 9 ar
6 9 29 1
7 10 11 ar
8 11 17 ar
9 12 16 ar
10 13 14 ar
11 14 21 ar
12 9 15 ar
13 1 16 1
14 10 16 ar
15 6 17 1
16 12 18 ar
17 17 18 ar
18 19 24 ar
19 13 20 ar
20 21 25 ar
21 8 22 ar
22 22 25 ar
23 15 23 ar
24 20 24 ar
25 24 25 ar
26 7 26 1
27 22 26 1
28 6 27 1
29 27 32 1
30 5 28 ar
31 23 28 ar
32 27 29 1
33 28 30 1
34 26 31 1
35 32 34 1
36 31 33 1
37 7 34 1
38 18 34 1
39 33 34 1
@<TRIPOS>SUBSTRUCTURE
1	LIG1	1	GROUP	1 C	LIG
