# created with PyMOL 3.1.3.1
@<TRIPOS>MOLECULE
predicted
24 27 1                 
SMALL
USER_CHARGES
@<TRIPOS>ATOM
1	CL19	12.219	-3.594	24.766	Cl	1	LIG1	0.000	
2	 O18	8.428	1.142	20.759	O.2	1	LIG1	0.000	
3	 N20	6.060	0.141	17.433	N.2	1	LIG1	0.000	
4	 C21	8.217	0.111	21.376	C.2	1	LIG1	0.000	
5	 C22	6.733	-0.392	18.452	C.2	1	LIG1	0.000	
6	 C23	13.490	-0.297	23.141	C.2	1	LIG1	0.000	
7	 C24	13.466	-1.527	23.759	C.2	1	LIG1	0.000	
8	 C25	12.354	0.421	22.842	C.2	1	LIG1	0.000	
9	 C26	2.891	2.054	20.428	C.2	1	LIG1	0.000	
10	 C27	3.556	1.554	21.495	C.2	1	LIG1	0.000	
11	 C28	12.263	-2.076	23.992	C.2	1	LIG1	0.000	
12	 C29	11.181	-0.139	23.114	C.2	1	LIG1	0.000	
13	 C30	11.075	-1.438	23.665	C.2	1	LIG1	0.000	
14	 C31	4.971	0.822	17.627	C.2	1	LIG1	0.000	
15	 C32	3.336	1.830	19.148	C.2	1	LIG1	0.000	
16	 C33	4.698	0.824	21.329	C.2	1	LIG1	0.000	
17	 C34	6.340	-0.206	19.763	C.2	1	LIG1	0.000	
18	 C35	4.483	1.086	18.930	C.2	1	LIG1	0.000	
19	 C36	5.182	0.563	20.036	C.2	1	LIG1	0.000	
20	 N37	8.889	-0.172	22.516	N.pl3	1	LIG1	0.000	
21	 C38	7.161	-0.820	20.865	C.3	1	LIG1	0.000	
22	 C39	9.953	0.671	22.864	C.3	1	LIG1	0.000	
23	 C40	9.741	-2.089	23.768	C.3	1	LIG1	0.000	
24	 C41	8.550	-1.296	23.369	C.3	1	LIG1	0.000	
@<TRIPOS>BOND
1 2 4 2
2 3 14 ar
3 4 20 1
4 4 21 1
5 3 5 ar
6 6 8 ar
7 6 7 ar
8 8 12 ar
9 9 10 ar
10 10 16 ar
11 1 11 1
12 7 11 ar
13 12 22 1
14 11 13 ar
15 12 13 ar
16 14 18 ar
17 9 15 ar
18 16 19 ar
19 5 17 ar
20 17 19 ar
21 15 18 ar
22 18 19 ar
23 20 22 1
24 20 24 1
25 17 21 1
26 13 23 1
27 23 24 1
@<TRIPOS>SUBSTRUCTURE
1	LIG1	1	GROUP	1 C	LIG
