# created with PyMOL 3.1.3.1
@<TRIPOS>MOLECULE
predicted
20 22 1                 
SMALL
USER_CHARGES
@<TRIPOS>ATOM
1	 O21	8.435	1.240	20.533	O.2	1	LIG1	0.000	
2	 N22	6.078	0.023	17.263	N.2	1	LIG1	0.000	
3	 C23	8.331	0.191	21.096	C.2	1	LIG1	0.000	
4	 C24	6.786	-0.445	18.278	C.2	1	LIG1	0.000	
5	 C25	2.836	1.782	20.259	C.2	1	LIG1	0.000	
6	 C26	3.549	1.330	21.316	C.2	1	LIG1	0.000	
7	 C27	4.963	0.645	17.463	C.2	1	LIG1	0.000	
8	 C28	3.285	1.576	18.987	C.2	1	LIG1	0.000	
9	 C29	4.739	0.669	21.141	C.2	1	LIG1	0.000	
10	 C30	6.433	-0.264	19.586	C.2	1	LIG1	0.000	
11	 C31	4.470	0.909	18.749	C.2	1	LIG1	0.000	
12	 C32	5.211	0.434	19.861	C.2	1	LIG1	0.000	
13	 N33	9.141	-0.061	22.151	N.pl3	1	LIG1	0.000	
14	 C34	7.292	-0.798	20.692	C.3	1	LIG1	0.000	
15	 C35	13.038	-1.341	23.155	C.3	1	LIG1	0.000	
16	 C36	9.194	-1.338	22.838	C.3	1	LIG1	0.000	
17	 C37	10.044	0.962	22.639	C.3	1	LIG1	0.000	
18	 C38	10.610	-1.867	22.777	C.3	1	LIG1	0.000	
19	 C39	11.443	0.470	22.555	C.3	1	LIG1	0.000	
20	 C40	11.614	-0.842	23.280	C.3	1	LIG1	0.000	
@<TRIPOS>BOND
1 2 7 ar
2 1 3 2
3 3 14 1
4 2 4 ar
5 5 6 ar
6 6 9 ar
7 7 11 ar
8 5 8 ar
9 9 12 ar
10 4 10 ar
11 10 12 ar
12 8 11 ar
13 11 12 ar
14 3 13 1
15 13 17 1
16 10 14 1
17 15 20 1
18 13 16 1
19 17 19 1
20 16 18 1
21 18 20 1
22 19 20 1
@<TRIPOS>SUBSTRUCTURE
1	LIG1	1	GROUP	1 C	LIG
