# created with PyMOL 3.1.3.1
@<TRIPOS>MOLECULE
predicted
40 45 1                 
SMALL
USER_CHARGES
@<TRIPOS>ATOM
1	CL30	13.276	-2.062	22.115	Cl	1	LIG1	0.000	
2	 O27	9.934	3.434	23.801	O.2	1	LIG1	0.000	
3	 O28	5.230	3.039	23.394	O.2	1	LIG1	0.000	
4	 O29	8.344	1.417	20.935	O.2	1	LIG1	0.000	
5	 N31	7.856	-7.192	24.351	N.2	1	LIG1	0.000	
6	 N32	9.029	-4.826	24.922	N.2	1	LIG1	0.000	
7	 N33	6.073	-0.032	17.383	N.2	1	LIG1	0.000	
8	 C34	9.541	2.260	23.713	C.2	1	LIG1	0.000	
9	 C35	6.338	3.465	23.349	C.2	1	LIG1	0.000	
10	 C36	7.982	0.355	21.409	C.2	1	LIG1	0.000	
11	 C37	9.020	-7.151	25.021	C.2	1	LIG1	0.000	
12	 C38	9.587	-5.929	25.342	C.2	1	LIG1	0.000	
13	 C39	7.284	-6.052	23.949	C.2	1	LIG1	0.000	
14	 C40	6.763	-0.409	18.460	C.2	1	LIG1	0.000	
15	 C41	7.859	-4.826	24.246	C.2	1	LIG1	0.000	
16	 C42	12.679	0.369	22.976	C.2	1	LIG1	0.000	
17	 C43	11.820	1.381	23.329	C.2	1	LIG1	0.000	
18	 C44	10.795	-1.052	22.435	C.2	1	LIG1	0.000	
19	 C45	2.634	1.809	20.211	C.2	1	LIG1	0.000	
20	 C46	3.320	1.412	21.350	C.2	1	LIG1	0.000	
21	 C47	12.177	-0.846	22.528	C.2	1	LIG1	0.000	
22	 C48	10.456	1.189	23.290	C.2	1	LIG1	0.000	
23	 C49	9.929	-0.053	22.876	C.2	1	LIG1	0.000	
24	 C50	4.895	0.570	17.537	C.2	1	LIG1	0.000	
25	 C51	3.155	1.533	18.940	C.2	1	LIG1	0.000	
26	 C52	4.510	0.756	21.231	C.2	1	LIG1	0.000	
27	 C53	6.299	-0.161	19.761	C.2	1	LIG1	0.000	
28	 C54	4.352	0.870	18.803	C.2	1	LIG1	0.000	
29	 C55	5.048	0.495	19.958	C.2	1	LIG1	0.000	
30	 N56	6.714	4.278	22.355	N.pl3	1	LIG1	0.000	
31	 N57	7.281	-3.694	23.832	N.pl3	1	LIG1	0.000	
32	 N58	7.055	-0.489	20.859	N.pl3	1	LIG1	0.000	
33	 N59	8.196	1.973	23.910	N.pl3	1	LIG1	0.000	
34	 C60	5.807	4.773	21.383	C.3	1	LIG1	0.000	
35	 C61	7.336	3.033	24.346	C.3	1	LIG1	0.000	
36	 C62	7.856	-2.345	23.908	C.3	1	LIG1	0.000	
37	 C63	6.956	-1.717	21.575	C.3	1	LIG1	0.000	
38	 C64	7.709	0.592	23.881	C.3	1	LIG1	0.000	
39	 C65	7.975	-1.645	22.665	C.3	1	LIG1	0.000	
40	 C66	8.436	-0.218	22.739	C.3	1	LIG1	0.000	
@<TRIPOS>BOND
1 5 11 ar
2 7 24 ar
3 2 8 2
4 3 9 2
5 9 35 1
6 4 10 2
7 10 32 1
8 11 12 ar
9 6 12 ar
10 5 13 ar
11 7 14 ar
12 6 15 ar
13 13 15 ar
14 16 17 ar
15 17 22 ar
16 18 21 ar
17 19 20 ar
18 20 26 ar
19 1 21 1
20 16 21 ar
21 8 22 1
22 18 23 ar
23 22 23 ar
24 24 28 ar
25 19 25 ar
26 26 29 ar
27 14 27 ar
28 27 29 ar
29 25 28 ar
30 28 29 ar
31 9 30 1
32 15 31 1
33 27 32 1
34 32 37 1
35 8 33 1
36 33 38 1
37 30 34 1
38 33 35 1
39 31 36 1
40 37 39 1
41 38 40 1
42 36 39 1
43 10 40 1
44 23 40 1
45 39 40 1
@<TRIPOS>SUBSTRUCTURE
1	LIG1	1	GROUP	1 C	LIG
