# created with PyMOL 3.1.3.1
@<TRIPOS>MOLECULE
predicted
34 39 1                 
SMALL
USER_CHARGES
@<TRIPOS>ATOM
1	CL25	13.600	-1.765	21.948	Cl	1	LIG1	0.000	
2	 O23	10.308	3.794	23.683	O.2	1	LIG1	0.000	
3	 O24	8.678	1.648	20.867	O.2	1	LIG1	0.000	
4	 N26	6.297	0.178	17.486	N.2	1	LIG1	0.000	
5	 N27	5.594	4.228	23.329	N.2	1	LIG1	0.000	
6	 C28	9.925	2.611	23.623	C.2	1	LIG1	0.000	
7	 C29	8.276	0.641	21.444	C.2	1	LIG1	0.000	
8	 C30	6.991	-0.148	18.560	C.2	1	LIG1	0.000	
9	 C31	6.877	3.995	23.285	C.2	1	LIG1	0.000	
10	 C32	13.050	0.712	22.754	C.2	1	LIG1	0.000	
11	 C33	12.212	1.741	23.121	C.2	1	LIG1	0.000	
12	 C34	11.134	-0.736	22.354	C.2	1	LIG1	0.000	
13	 C35	2.767	1.947	20.271	C.2	1	LIG1	0.000	
14	 C36	3.473	1.616	21.409	C.2	1	LIG1	0.000	
15	 C37	7.392	4.458	22.112	C.2	1	LIG1	0.000	
16	 C38	12.522	-0.517	22.375	C.2	1	LIG1	0.000	
17	 C39	10.833	1.532	23.161	C.2	1	LIG1	0.000	
18	 C40	10.299	0.280	22.812	C.2	1	LIG1	0.000	
19	 C41	5.089	0.768	17.608	C.2	1	LIG1	0.000	
20	 C42	3.296	1.675	19.018	C.2	1	LIG1	0.000	
21	 C43	4.695	1.033	21.298	C.2	1	LIG1	0.000	
22	 C44	6.534	0.156	19.845	C.2	1	LIG1	0.000	
23	 C45	6.288	4.967	21.399	C.2	1	LIG1	0.000	
24	 C46	4.535	1.072	18.878	C.2	1	LIG1	0.000	
25	 C47	5.253	0.754	20.031	C.2	1	LIG1	0.000	
26	 N48	7.303	-0.155	20.953	N.pl3	1	LIG1	0.000	
27	 N49	8.581	2.314	23.924	N.pl3	1	LIG1	0.000	
28	 N50	5.245	4.811	22.157	N.2	1	LIG1	0.000	
29	 C51	7.690	3.345	24.417	C.3	1	LIG1	0.000	
30	 C52	3.923	5.231	21.844	C.3	1	LIG1	0.000	
31	 C53	7.200	-1.380	21.718	C.3	1	LIG1	0.000	
32	 C54	8.116	0.933	23.934	C.3	1	LIG1	0.000	
33	 C55	8.297	-1.243	22.808	C.3	1	LIG1	0.000	
34	 C56	8.795	0.143	22.766	C.3	1	LIG1	0.000	
@<TRIPOS>BOND
1 4 19 ar
2 2 6 2
3 3 7 2
4 4 8 ar
5 5 9 ar
6 9 29 1
7 10 11 ar
8 11 17 ar
9 12 16 ar
10 13 14 ar
11 14 21 ar
12 9 15 ar
13 1 16 1
14 10 16 ar
15 6 17 1
16 12 18 ar
17 17 18 ar
18 19 24 ar
19 13 20 ar
20 21 25 ar
21 8 22 ar
22 22 25 ar
23 15 23 ar
24 20 24 ar
25 24 25 ar
26 7 26 1
27 22 26 1
28 6 27 1
29 27 32 1
30 5 28 ar
31 23 28 ar
32 27 29 1
33 28 30 1
34 26 31 1
35 32 34 1
36 31 33 1
37 7 34 1
38 18 34 1
39 33 34 1
@<TRIPOS>SUBSTRUCTURE
1	LIG1	1	GROUP	1 C	LIG
