# created with PyMOL 3.1.3.1
@<TRIPOS>MOLECULE
predicted
41 47 1                 
SMALL
USER_CHARGES
@<TRIPOS>ATOM
1	CL26	13.286	-1.886	22.198	Cl	1	LIG1	0.000	
2	 O24	9.956	3.576	24.070	O.2	1	LIG1	0.000	
3	 O25	8.356	1.522	21.081	O.2	1	LIG1	0.000	
4	 N27	4.822	4.655	22.558	N.2	1	LIG1	0.000	
5	 N28	5.272	4.244	23.803	N.2	1	LIG1	0.000	
6	 N29	7.643	-7.195	24.010	N.2	1	LIG1	0.000	
7	 N30	6.868	-5.015	23.788	N.2	1	LIG1	0.000	
8	 N31	6.102	0.103	17.583	N.2	1	LIG1	0.000	
9	 O32	6.790	3.873	22.330	O.2	1	LIG1	0.000	
10	 C33	9.564	2.409	23.939	C.2	1	LIG1	0.000	
11	 C34	7.987	0.485	21.597	C.2	1	LIG1	0.000	
12	 C35	6.729	-6.294	23.617	C.2	1	LIG1	0.000	
13	 C36	5.754	4.436	21.712	C.2	1	LIG1	0.000	
14	 C37	6.470	3.745	23.636	C.2	1	LIG1	0.000	
15	 C38	8.728	-6.778	24.702	C.2	1	LIG1	0.000	
16	 C39	6.778	-0.266	18.663	C.2	1	LIG1	0.000	
17	 C40	7.974	-4.518	24.432	C.2	1	LIG1	0.000	
18	 C41	8.921	-5.414	24.921	C.2	1	LIG1	0.000	
19	 C42	12.684	0.526	23.112	C.2	1	LIG1	0.000	
20	 C43	11.835	1.534	23.492	C.2	1	LIG1	0.000	
21	 C44	10.793	-0.884	22.582	C.2	1	LIG1	0.000	
22	 C45	2.610	1.941	20.350	C.2	1	LIG1	0.000	
23	 C46	3.287	1.561	21.509	C.2	1	LIG1	0.000	
24	 C47	12.178	-0.677	22.655	C.2	1	LIG1	0.000	
25	 C48	10.466	1.342	23.472	C.2	1	LIG1	0.000	
26	 C49	9.940	0.109	23.047	C.2	1	LIG1	0.000	
27	 C50	4.924	0.697	17.712	C.2	1	LIG1	0.000	
28	 C51	3.153	1.650	19.089	C.2	1	LIG1	0.000	
29	 C52	4.488	0.909	21.411	C.2	1	LIG1	0.000	
30	 C53	6.301	-0.023	19.961	C.2	1	LIG1	0.000	
31	 C54	4.363	0.999	18.971	C.2	1	LIG1	0.000	
32	 C55	5.043	0.637	20.138	C.2	1	LIG1	0.000	
33	 N56	8.217	-3.193	24.647	N.pl3	1	LIG1	0.000	
34	 N57	7.051	-0.345	21.075	N.pl3	1	LIG1	0.000	
35	 N58	8.221	2.122	24.149	N.pl3	1	LIG1	0.000	
36	 C59	7.345	3.130	24.691	C.3	1	LIG1	0.000	
37	 C60	7.454	-2.069	24.186	C.3	1	LIG1	0.000	
38	 C61	6.936	-1.574	21.799	C.3	1	LIG1	0.000	
39	 C62	7.735	0.761	24.075	C.3	1	LIG1	0.000	
40	 C63	7.987	-1.484	22.920	C.3	1	LIG1	0.000	
41	 C64	8.434	-0.060	22.939	C.3	1	LIG1	0.000	
@<TRIPOS>BOND
1 2 10 2
2 4 13 ar
3 4 5 ar
4 6 12 ar
5 8 27 ar
6 10 25 1
7 10 35 1
8 3 11 2
9 11 34 1
10 7 12 ar
11 9 13 ar
12 5 14 ar
13 9 14 ar
14 6 15 ar
15 8 16 ar
16 7 17 ar
17 17 18 ar
18 15 18 ar
19 19 24 ar
20 19 20 ar
21 21 26 ar
22 22 23 ar
23 23 29 ar
24 1 24 1
25 21 24 ar
26 20 25 ar
27 25 26 ar
28 26 41 1
29 27 31 ar
30 22 28 ar
31 29 32 ar
32 16 30 ar
33 30 32 ar
34 28 31 ar
35 31 32 ar
36 17 33 1
37 30 34 1
38 34 38 1
39 35 36 1
40 14 36 1
41 33 37 1
42 38 40 1
43 35 39 1
44 37 40 1
45 11 41 1
46 39 41 1
47 40 41 1
@<TRIPOS>SUBSTRUCTURE
1	LIG1	1	GROUP	1 C	LIG
