# created with PyMOL 3.1.3.1
@<TRIPOS>MOLECULE
predicted
35 40 1                 
SMALL
USER_CHARGES
@<TRIPOS>ATOM
1	 O23	10.517	3.388	23.855	O.2	1	LIG1	0.000	
2	 O24	8.770	1.437	21.019	O.2	1	LIG1	0.000	
3	 N26	5.701	3.311	23.701	N.2	1	LIG1	0.000	
4	 N27	7.278	4.349	22.614	N.2	1	LIG1	0.000	
5	 N28	6.293	0.148	17.600	N.2	1	LIG1	0.000	
6	 O29	5.150	4.035	22.639	O.2	1	LIG1	0.000	
7	 C30	10.109	2.225	23.760	C.2	1	LIG1	0.000	
8	 C31	8.396	0.390	21.507	C.2	1	LIG1	0.000	
9	 C32	6.980	3.535	23.664	C.2	1	LIG1	0.000	
10	 C33	6.139	4.654	22.018	C.2	1	LIG1	0.000	
11	 C34	7.023	-0.218	18.631	C.2	1	LIG1	0.000	
12	 C35	13.168	0.311	22.847	C.2	1	LIG1	0.000	
13	 C36	12.361	1.331	23.251	C.2	1	LIG1	0.000	
14	 C37	11.257	-1.066	22.353	C.2	1	LIG1	0.000	
15	 C38	2.850	1.724	20.556	C.2	1	LIG1	0.000	
16	 C39	3.582	1.329	21.656	C.2	1	LIG1	0.000	
17	 C40	12.639	-0.878	22.395	C.2	1	LIG1	0.000	
18	 C41	10.982	1.162	23.254	C.2	1	LIG1	0.000	
19	 C42	10.423	-0.067	22.845	C.2	1	LIG1	0.000	
20	 C43	5.093	0.705	17.790	C.2	1	LIG1	0.000	
21	 C44	3.345	1.509	19.279	C.2	1	LIG1	0.000	
22	 C45	4.801	0.758	21.482	C.2	1	LIG1	0.000	
23	 C46	6.595	-0.016	19.951	C.2	1	LIG1	0.000	
24	 C47	4.575	0.934	19.082	C.2	1	LIG1	0.000	
25	 C48	5.325	0.560	20.196	C.2	1	LIG1	0.000	
26	 N49	7.394	-0.371	21.015	N.pl3	1	LIG1	0.000	
27	 N50	8.780	1.931	24.052	N.pl3	1	LIG1	0.000	
28	 C51	5.866	5.529	20.872	C.3	1	LIG1	0.000	
29	 C52	7.964	2.934	24.657	C.3	1	LIG1	0.000	
30	 C53	8.278	-2.411	23.934	C.3	1	LIG1	0.000	
31	 C54	7.264	-1.606	21.732	C.3	1	LIG1	0.000	
32	 C55	8.275	0.554	23.989	C.3	1	LIG1	0.000	
33	 C56	8.423	-1.614	22.692	C.3	1	LIG1	0.000	
34	 C57	8.920	-0.199	22.796	C.3	1	LIG1	0.000	
35	 F25	13.471	-1.827	22.022	 F	1	LIG1	0.000	
@<TRIPOS>BOND
1 3 6 ar
2 4 9 ar
3 5 20 ar
4 1 7 2
5 2 8 2
6 8 26 1
7 3 9 ar
8 9 29 1
9 4 10 ar
10 6 10 ar
11 5 11 ar
12 12 13 ar
13 13 18 ar
14 14 17 ar
15 15 16 ar
16 16 22 ar
17 12 17 ar
18 17 35 1
19 7 18 1
20 14 19 ar
21 18 19 ar
22 20 24 ar
23 15 21 ar
24 22 25 ar
25 11 23 ar
26 23 25 ar
27 21 24 ar
28 24 25 ar
29 23 26 1
30 26 31 1
31 7 27 1
32 27 32 1
33 10 28 1
34 27 29 1
35 31 33 1
36 32 34 1
37 30 33 1
38 8 34 1
39 19 34 1
40 33 34 1
@<TRIPOS>SUBSTRUCTURE
1	LIG1	1	GROUP	1 C	LIG
