# created with PyMOL 3.1.3.1
@<TRIPOS>MOLECULE
predicted
38 43 1                 
SMALL
USER_CHARGES
@<TRIPOS>ATOM
1	CL33	13.407	-2.026	22.352	Cl	1	LIG1	0.000	
2	 O30	9.992	3.570	23.346	O.2	1	LIG1	0.000	
3	 O31	7.953	5.109	24.024	O.2	1	LIG1	0.000	
4	 O32	8.448	1.460	20.673	O.2	1	LIG1	0.000	
5	 N34	6.074	0.032	17.287	N.2	1	LIG1	0.000	
6	 O35	6.714	-2.412	24.192	O.3	1	LIG1	0.000	
7	 C36	9.584	2.425	23.328	C.2	1	LIG1	0.000	
8	 C37	7.432	4.465	23.169	C.2	1	LIG1	0.000	
9	 C38	8.078	0.427	21.208	C.2	1	LIG1	0.000	
10	 C39	6.774	-0.329	18.344	C.2	1	LIG1	0.000	
11	 C40	12.737	0.472	22.964	C.2	1	LIG1	0.000	
12	 C41	11.884	1.511	23.179	C.2	1	LIG1	0.000	
13	 C42	10.886	-0.952	22.415	C.2	1	LIG1	0.000	
14	 C43	2.781	2.055	20.125	C.2	1	LIG1	0.000	
15	 C44	3.496	1.687	21.249	C.2	1	LIG1	0.000	
16	 C45	12.249	-0.754	22.574	C.2	1	LIG1	0.000	
17	 C46	10.528	1.333	23.080	C.2	1	LIG1	0.000	
18	 C47	10.012	0.086	22.724	C.2	1	LIG1	0.000	
19	 C48	4.919	0.674	17.446	C.2	1	LIG1	0.000	
20	 C49	3.259	1.721	18.860	C.2	1	LIG1	0.000	
21	 C50	4.648	0.994	21.126	C.2	1	LIG1	0.000	
22	 C51	6.340	-0.058	19.627	C.2	1	LIG1	0.000	
23	 C52	4.417	1.025	18.709	C.2	1	LIG1	0.000	
24	 C53	5.138	0.664	19.857	C.2	1	LIG1	0.000	
25	 N54	7.159	4.902	21.937	N.pl3	1	LIG1	0.000	
26	 N55	7.123	-0.377	20.711	N.pl3	1	LIG1	0.000	
27	 N56	8.202	2.152	23.425	N.pl3	1	LIG1	0.000	
28	 C57	7.370	6.238	21.557	C.3	1	LIG1	0.000	
29	 C58	7.131	3.071	23.414	C.3	1	LIG1	0.000	
30	 C59	6.538	-3.005	25.453	C.3	1	LIG1	0.000	
31	 C60	4.388	-2.945	26.770	C.3	1	LIG1	0.000	
32	 C61	4.192	-2.050	25.679	C.3	1	LIG1	0.000	
33	 C62	5.567	-2.169	26.293	C.3	1	LIG1	0.000	
34	 C63	7.981	-2.119	23.832	C.3	1	LIG1	0.000	
35	 C64	7.018	-1.570	21.471	C.3	1	LIG1	0.000	
36	 C65	7.798	0.826	23.597	C.3	1	LIG1	0.000	
37	 C66	8.071	-1.474	22.522	C.3	1	LIG1	0.000	
38	 C67	8.526	-0.060	22.539	C.3	1	LIG1	0.000	
@<TRIPOS>BOND
1 5 19 ar
2 6 30 1
3 2 7 2
4 3 8 2
5 8 29 1
6 4 9 2
7 9 26 1
8 5 10 ar
9 11 12 ar
10 12 17 ar
11 13 16 ar
12 14 15 ar
13 15 21 ar
14 1 16 1
15 11 16 ar
16 7 17 1
17 13 18 ar
18 17 18 ar
19 19 23 ar
20 14 20 ar
21 21 24 ar
22 10 22 ar
23 22 24 ar
24 20 23 ar
25 23 24 ar
26 8 25 1
27 22 26 1
28 26 35 1
29 7 27 1
30 27 36 1
31 25 28 1
32 27 29 1
33 30 33 1
34 31 32 1
35 31 33 1
36 32 33 1
37 6 34 1
38 35 37 1
39 36 38 1
40 34 37 1
41 9 38 1
42 18 38 1
43 37 38 1
@<TRIPOS>SUBSTRUCTURE
1	LIG1	1	GROUP	1 C	LIG
