# created with PyMOL 3.1.3.1
@<TRIPOS>MOLECULE
predicted
27 32 1                 
SMALL
USER_CHARGES
@<TRIPOS>ATOM
1	CL19	-13.536	-2.535	-23.140	Cl	1	LIG1	0.000	
2	 O17	-8.749	0.807	-20.383	O.2	1	LIG1	0.000	
3	 O18	-7.055	-3.316	-21.218	O.2	1	LIG1	0.000	
4	 N20	-6.125	-0.907	-17.257	N.2	1	LIG1	0.000	
5	 C21	-8.650	-0.274	-20.897	C.2	1	LIG1	0.000	
6	 C22	-7.823	-2.353	-21.283	C.2	1	LIG1	0.000	
7	 C23	-6.968	-1.216	-18.210	C.2	1	LIG1	0.000	
8	 C24	-12.842	-5.489	-25.594	C.2	1	LIG1	0.000	
9	 C25	-11.455	-5.556	-25.624	C.2	1	LIG1	0.000	
10	 C26	-13.477	-4.559	-24.812	C.2	1	LIG1	0.000	
11	 C27	-10.736	-4.700	-24.893	C.2	1	LIG1	0.000	
12	 C28	-3.087	0.941	-20.468	C.2	1	LIG1	0.000	
13	 C29	-3.934	0.597	-21.485	C.2	1	LIG1	0.000	
14	 C30	-12.750	-3.678	-24.061	C.2	1	LIG1	0.000	
15	 C31	-11.374	-3.759	-24.081	C.2	1	LIG1	0.000	
16	 C32	-4.975	-0.303	-17.546	C.2	1	LIG1	0.000	
17	 C33	-3.419	0.665	-19.182	C.2	1	LIG1	0.000	
18	 C34	-5.114	-0.035	-21.231	C.2	1	LIG1	0.000	
19	 C35	-6.694	-0.974	-19.547	C.2	1	LIG1	0.000	
20	 C36	-4.610	0.012	-18.872	C.2	1	LIG1	0.000	
21	 C37	-5.477	-0.328	-19.907	C.2	1	LIG1	0.000	
22	 N38	-7.666	-1.196	-20.546	N.pl3	1	LIG1	0.000	
23	 N39	-9.397	-0.799	-21.810	N.pl3	1	LIG1	0.000	
24	 C40	-10.100	-3.155	-21.984	C.3	1	LIG1	0.000	
25	 C41	-9.074	-2.383	-23.554	C.3	1	LIG1	0.000	
26	 C42	-10.644	-2.763	-23.352	C.3	1	LIG1	0.000	
27	 C43	-8.985	-2.151	-22.116	C.3	1	LIG1	0.000	
@<TRIPOS>BOND
1 2 5 2
2 4 16 ar
3 5 22 1
4 5 23 1
5 3 6 2
6 6 22 1
7 4 7 ar
8 8 10 ar
9 8 9 ar
10 10 14 ar
11 9 11 ar
12 12 13 ar
13 13 18 ar
14 1 14 1
15 11 15 ar
16 14 15 ar
17 16 20 ar
18 12 17 ar
19 18 21 ar
20 7 19 ar
21 19 21 ar
22 17 20 ar
23 20 21 ar
24 19 22 1
25 23 27 1
26 24 25 1
27 24 26 1
28 15 26 1
29 25 26 1
30 6 27 1
31 24 27 1
32 25 27 1
@<TRIPOS>SUBSTRUCTURE
1	LIG1	1	GROUP	1 C	LIG
