# created with PyMOL 3.1.3.1
@<TRIPOS>MOLECULE
predicted
31 34 1                 
SMALL
USER_CHARGES
@<TRIPOS>ATOM
1	CL23	13.622	-1.597	20.749	Cl	1	LIG1	0.000	
2	 N21	8.857	-6.232	27.431	N.3	1	LIG1	0.000	
3	 O22	8.461	1.156	20.738	O.2	1	LIG1	0.000	
4	 C24	8.913	-5.139	26.570	C.3	1	LIG1	0.000	
5	 N25	6.135	0.006	17.352	N.2	1	LIG1	0.000	
6	 C26	8.163	0.137	21.385	C.2	1	LIG1	0.000	
7	 C27	6.786	-0.505	18.419	C.2	1	LIG1	0.000	
8	 C28	12.917	-0.578	24.562	C.2	1	LIG1	0.000	
9	 C29	13.530	-1.074	23.403	C.2	1	LIG1	0.000	
10	 C30	7.512	-1.020	24.424	C.2	1	LIG1	0.000	
11	 C31	9.239	-2.326	23.388	C.2	1	LIG1	0.000	
12	 C32	7.245	-2.065	25.285	C.2	1	LIG1	0.000	
13	 C33	8.989	-3.372	24.231	C.2	1	LIG1	0.000	
14	 C34	11.672	0.046	24.426	C.2	1	LIG1	0.000	
15	 C35	11.651	-0.363	22.058	C.2	1	LIG1	0.000	
16	 C36	2.873	1.964	20.183	C.2	1	LIG1	0.000	
17	 C37	3.523	1.488	21.296	C.2	1	LIG1	0.000	
18	 C38	12.896	-0.972	22.169	C.2	1	LIG1	0.000	
19	 C39	8.496	-1.161	23.475	C.2	1	LIG1	0.000	
20	 C40	8.011	-3.264	25.213	C.2	1	LIG1	0.000	
21	 C41	11.094	0.194	23.173	C.2	1	LIG1	0.000	
22	 C42	5.036	0.679	17.487	C.2	1	LIG1	0.000	
23	 C43	3.361	1.709	18.926	C.2	1	LIG1	0.000	
24	 C44	4.684	0.743	21.191	C.2	1	LIG1	0.000	
25	 C45	6.372	-0.300	19.707	C.2	1	LIG1	0.000	
26	 C46	4.519	0.955	18.765	C.2	1	LIG1	0.000	
27	 C47	5.200	0.461	19.910	C.2	1	LIG1	0.000	
28	 N48	8.743	-0.068	22.598	N.pl3	1	LIG1	0.000	
29	 C49	7.733	-4.389	26.135	C.3	1	LIG1	0.000	
30	 C50	7.175	-0.868	20.878	C.3	1	LIG1	0.000	
31	 C51	9.752	0.888	23.084	C.3	1	LIG1	0.000	
@<TRIPOS>BOND
1 2 4 1
2 4 29 1
3 5 22 ar
4 3 6 2
5 6 30 1
6 5 7 ar
7 8 9 ar
8 9 18 ar
9 10 19 ar
10 11 13 ar
11 10 12 ar
12 8 14 ar
13 16 17 ar
14 17 24 ar
15 1 18 1
16 15 18 ar
17 11 19 ar
18 19 28 1
19 12 20 ar
20 13 20 ar
21 14 21 ar
22 15 21 ar
23 22 26 ar
24 16 23 ar
25 24 27 ar
26 7 25 ar
27 25 27 ar
28 23 26 ar
29 26 27 ar
30 6 28 1
31 28 31 1
32 20 29 1
33 25 30 1
34 21 31 1
@<TRIPOS>SUBSTRUCTURE
1	LIG1	1	GROUP	1 C	LIG
