# created with PyMOL 3.1.3.1
@<TRIPOS>MOLECULE
predicted
24 27 1                 
SMALL
USER_CHARGES
@<TRIPOS>ATOM
1	 O27	7.876	1.130	20.482	O.2	1	LIG1	0.000	
2	 N28	5.814	0.166	17.051	N.2	1	LIG1	0.000	
3	 C29	7.751	0.050	20.981	C.2	1	LIG1	0.000	
4	 C30	6.454	-0.411	18.052	C.2	1	LIG1	0.000	
5	 C31	2.665	1.989	20.073	C.2	1	LIG1	0.000	
6	 C32	3.312	1.428	21.100	C.2	1	LIG1	0.000	
7	 C33	4.742	0.853	17.264	C.2	1	LIG1	0.000	
8	 C34	3.123	1.816	18.798	C.2	1	LIG1	0.000	
9	 C35	4.429	0.696	20.911	C.2	1	LIG1	0.000	
10	 C36	6.041	-0.283	19.331	C.2	1	LIG1	0.000	
11	 C37	4.245	1.064	18.554	C.2	1	LIG1	0.000	
12	 C38	4.912	0.484	19.630	C.2	1	LIG1	0.000	
13	 N39	8.329	-0.216	22.093	N.pl3	1	LIG1	0.000	
14	 C40	6.839	-0.951	20.389	C.3	1	LIG1	0.000	
15	 C41	8.646	0.797	22.985	C.3	1	LIG1	0.000	
16	 C42	14.131	-2.015	23.588	C.3	1	LIG1	0.000	
17	 C43	11.840	-2.112	24.366	C.3	1	LIG1	0.000	
18	 C44	12.367	-0.951	22.285	C.3	1	LIG1	0.000	
19	 C45	8.766	-1.499	22.521	C.3	1	LIG1	0.000	
20	 C46	9.835	0.266	23.709	C.3	1	LIG1	0.000	
21	 C47	10.457	-2.042	24.061	C.3	1	LIG1	0.000	
22	 C48	11.025	-0.846	21.997	C.3	1	LIG1	0.000	
23	 C49	12.764	-1.764	23.384	C.3	1	LIG1	0.000	
24	 C50	10.119	-1.071	23.097	C.3	1	LIG1	0.000	
@<TRIPOS>BOND
1 2 7 ar
2 1 3 2
3 3 14 1
4 2 4 ar
5 5 6 ar
6 6 9 ar
7 7 11 ar
8 5 8 ar
9 9 12 ar
10 4 10 ar
11 10 12 ar
12 8 11 ar
13 11 12 ar
14 3 13 1
15 13 19 1
16 10 14 1
17 13 15 1
18 16 23 1
19 18 22 1
20 15 20 1
21 17 21 1
22 22 24 1
23 17 23 1
24 18 23 1
25 19 24 1
26 20 24 1
27 21 24 1
@<TRIPOS>SUBSTRUCTURE
1	LIG1	1	GROUP	1 C	LIG
