# created with PyMOL 3.1.3.1
@<TRIPOS>MOLECULE
predicted
35 40 1                 
SMALL
USER_CHARGES
@<TRIPOS>ATOM
1	CL29	-13.751	-3.715	-22.115	Cl	1	LIG1	0.000	
2	 O26	-10.548	1.739	-24.221	O.2	1	LIG1	0.000	
3	 O27	-6.386	2.967	-24.179	O.2	1	LIG1	0.000	
4	 O28	-8.914	-0.017	-21.215	O.2	1	LIG1	0.000	
5	 N30	-6.579	-1.023	-17.616	N.2	1	LIG1	0.000	
6	 C31	-10.134	0.590	-24.045	C.2	1	LIG1	0.000	
7	 C32	-7.296	2.278	-23.913	C.2	1	LIG1	0.000	
8	 C33	-8.514	-1.097	-21.624	C.2	1	LIG1	0.000	
9	 C34	-7.232	-1.515	-18.648	C.2	1	LIG1	0.000	
10	 C35	-13.229	-1.317	-23.132	C.2	1	LIG1	0.000	
11	 C36	-12.410	-0.296	-23.561	C.2	1	LIG1	0.000	
12	 C37	-11.322	-2.634	-22.497	C.2	1	LIG1	0.000	
13	 C38	-3.248	0.778	-20.610	C.2	1	LIG1	0.000	
14	 C39	-3.914	0.251	-21.696	C.2	1	LIG1	0.000	
15	 C40	-12.693	-2.475	-22.585	C.2	1	LIG1	0.000	
16	 C41	-11.032	-0.454	-23.500	C.2	1	LIG1	0.000	
17	 C42	-10.477	-1.647	-23.000	C.2	1	LIG1	0.000	
18	 C43	-5.445	-0.345	-17.819	C.2	1	LIG1	0.000	
19	 C44	-3.753	0.591	-19.331	C.2	1	LIG1	0.000	
20	 C45	-5.053	-0.450	-21.512	C.2	1	LIG1	0.000	
21	 C46	-6.785	-1.347	-19.968	C.2	1	LIG1	0.000	
22	 C47	-4.918	-0.118	-19.121	C.2	1	LIG1	0.000	
23	 C48	-5.595	-0.635	-20.229	C.2	1	LIG1	0.000	
24	 N49	-7.808	2.482	-22.703	N.pl3	1	LIG1	0.000	
25	 N50	-7.530	-1.817	-21.037	N.pl3	1	LIG1	0.000	
26	 N51	-8.774	0.278	-24.262	N.pl3	1	LIG1	0.000	
27	 C52	-7.291	3.459	-21.773	C.3	1	LIG1	0.000	
28	 C53	-7.512	1.098	-26.289	C.3	1	LIG1	0.000	
29	 C54	-6.611	0.518	-25.470	C.3	1	LIG1	0.000	
30	 C55	-7.890	1.257	-24.904	C.3	1	LIG1	0.000	
31	 C56	-8.199	-4.011	-23.867	C.3	1	LIG1	0.000	
32	 C57	-7.377	-3.093	-21.641	C.3	1	LIG1	0.000	
33	 C58	-8.299	-1.090	-24.075	C.3	1	LIG1	0.000	
34	 C59	-8.475	-3.167	-22.681	C.3	1	LIG1	0.000	
35	 C60	-8.980	-1.765	-22.881	C.3	1	LIG1	0.000	
@<TRIPOS>BOND
1 5 18 ar
2 2 6 2
3 3 7 2
4 7 30 1
5 4 8 2
6 8 25 1
7 5 9 ar
8 10 11 ar
9 11 16 ar
10 12 15 ar
11 13 14 ar
12 14 20 ar
13 1 15 1
14 10 15 ar
15 6 16 1
16 12 17 ar
17 16 17 ar
18 18 22 ar
19 13 19 ar
20 20 23 ar
21 9 21 ar
22 21 23 ar
23 19 22 ar
24 22 23 ar
25 7 24 1
26 21 25 1
27 25 32 1
28 6 26 1
29 26 33 1
30 24 27 1
31 28 29 1
32 26 30 1
33 28 30 1
34 29 30 1
35 32 34 1
36 33 35 1
37 31 34 1
38 8 35 1
39 17 35 1
40 34 35 1
@<TRIPOS>SUBSTRUCTURE
1	LIG1	1	GROUP	1 C	LIG
