# created with PyMOL 3.1.3.1
@<TRIPOS>MOLECULE
predicted
35 39 1                 
SMALL
USER_CHARGES
@<TRIPOS>ATOM
1	CL29	13.484	-2.124	22.329	Cl	1	LIG1	0.000	
2	 O26	10.063	3.443	23.510	O.2	1	LIG1	0.000	
3	 O27	7.445	5.038	24.116	O.2	1	LIG1	0.000	
4	 O28	8.515	1.366	20.821	O.2	1	LIG1	0.000	
5	 N30	6.160	-0.046	17.372	N.2	1	LIG1	0.000	
6	 O31	7.941	-2.084	23.926	O.3	1	LIG1	0.000	
7	 C32	9.678	2.284	23.488	C.2	1	LIG1	0.000	
8	 C33	7.264	4.168	23.367	C.2	1	LIG1	0.000	
9	 C34	8.135	0.336	21.351	C.2	1	LIG1	0.000	
10	 C35	6.840	-0.396	18.448	C.2	1	LIG1	0.000	
11	 C36	12.860	0.361	22.978	C.2	1	LIG1	0.000	
12	 C37	12.000	1.401	23.225	C.2	1	LIG1	0.000	
13	 C38	10.988	-1.081	22.496	C.2	1	LIG1	0.000	
14	 C39	2.777	1.945	20.131	C.2	1	LIG1	0.000	
15	 C40	3.463	1.582	21.272	C.2	1	LIG1	0.000	
16	 C41	12.363	-0.869	22.596	C.2	1	LIG1	0.000	
17	 C42	10.631	1.202	23.163	C.2	1	LIG1	0.000	
18	 C43	10.101	-0.053	22.832	C.2	1	LIG1	0.000	
19	 C44	5.000	0.588	17.499	C.2	1	LIG1	0.000	
20	 C45	3.286	1.617	18.886	C.2	1	LIG1	0.000	
21	 C46	4.632	0.899	21.184	C.2	1	LIG1	0.000	
22	 C47	6.396	-0.134	19.748	C.2	1	LIG1	0.000	
23	 C48	4.474	0.929	18.761	C.2	1	LIG1	0.000	
24	 C49	5.173	0.570	19.929	C.2	1	LIG1	0.000	
25	 N50	7.121	4.371	22.055	N.pl3	1	LIG1	0.000	
26	 N51	7.150	-0.451	20.848	N.pl3	1	LIG1	0.000	
27	 N52	8.297	1.966	23.684	N.pl3	1	LIG1	0.000	
28	 C53	7.026	5.671	21.500	C.3	1	LIG1	0.000	
29	 C54	7.203	2.821	23.864	C.3	1	LIG1	0.000	
30	 C55	7.681	-3.931	25.402	C.3	1	LIG1	0.000	
31	 C56	7.602	-3.456	24.017	C.3	1	LIG1	0.000	
32	 C57	7.022	-1.661	21.621	C.3	1	LIG1	0.000	
33	 C58	7.911	0.632	23.824	C.3	1	LIG1	0.000	
34	 C59	8.101	-1.587	22.682	C.3	1	LIG1	0.000	
35	 C60	8.601	-0.189	22.692	C.3	1	LIG1	0.000	
@<TRIPOS>BOND
1 5 19 ar
2 6 34 1
3 2 7 2
4 7 17 1
5 3 8 2
6 8 25 1
7 4 9 2
8 9 35 1
9 5 10 ar
10 11 16 ar
11 11 12 ar
12 13 18 ar
13 14 15 ar
14 15 21 ar
15 1 16 1
16 13 16 ar
17 12 17 ar
18 17 18 ar
19 19 23 ar
20 14 20 ar
21 21 24 ar
22 10 22 ar
23 22 24 ar
24 20 23 ar
25 23 24 ar
26 25 28 1
27 9 26 1
28 22 26 1
29 7 27 1
30 27 29 1
31 8 29 1
32 30 31 1
33 6 31 1
34 26 32 1
35 27 33 1
36 32 34 1
37 34 35 1
38 18 35 1
39 33 35 1
@<TRIPOS>SUBSTRUCTURE
1	LIG1	1	GROUP	1 C	LIG
