# created with PyMOL 3.1.3.1
@<TRIPOS>MOLECULE
predicted
35 39 1                 
SMALL
USER_CHARGES
@<TRIPOS>ATOM
1	CL29	13.422	-2.073	22.088	Cl	1	LIG1	0.000	
2	 O26	10.164	3.509	23.603	O.2	1	LIG1	0.000	
3	 O27	5.526	3.693	23.480	O.2	1	LIG1	0.000	
4	 O28	8.457	1.435	20.883	O.2	1	LIG1	0.000	
5	 N30	6.096	0.014	17.445	N.2	1	LIG1	0.000	
6	 O31	6.880	-2.685	24.275	O.3	1	LIG1	0.000	
7	 C32	9.755	2.338	23.564	C.2	1	LIG1	0.000	
8	 C33	6.678	3.732	23.317	C.2	1	LIG1	0.000	
9	 C34	8.113	0.385	21.394	C.2	1	LIG1	0.000	
10	 C35	6.813	-0.337	18.494	C.2	1	LIG1	0.000	
11	 C36	12.840	0.378	22.863	C.2	1	LIG1	0.000	
12	 C37	12.012	1.414	23.186	C.2	1	LIG1	0.000	
13	 C38	10.954	-1.028	22.379	C.2	1	LIG1	0.000	
14	 C39	2.700	1.774	20.362	C.2	1	LIG1	0.000	
15	 C40	3.422	1.396	21.476	C.2	1	LIG1	0.000	
16	 C41	12.319	-0.838	22.446	C.2	1	LIG1	0.000	
17	 C42	10.647	1.239	23.161	C.2	1	LIG1	0.000	
18	 C43	10.094	-0.007	22.795	C.2	1	LIG1	0.000	
19	 C44	4.914	0.602	17.623	C.2	1	LIG1	0.000	
20	 C45	3.192	1.510	19.092	C.2	1	LIG1	0.000	
21	 C46	4.618	0.774	21.327	C.2	1	LIG1	0.000	
22	 C47	6.378	-0.117	19.809	C.2	1	LIG1	0.000	
23	 C48	4.398	0.884	18.912	C.2	1	LIG1	0.000	
24	 C49	5.133	0.521	20.043	C.2	1	LIG1	0.000	
25	 N50	7.129	4.319	22.225	N.pl3	1	LIG1	0.000	
26	 N51	7.164	-0.439	20.877	N.pl3	1	LIG1	0.000	
27	 N52	8.419	2.056	23.825	N.pl3	1	LIG1	0.000	
28	 C53	6.830	-3.504	25.441	C.3	1	LIG1	0.000	
29	 C54	6.247	4.974	21.290	C.3	1	LIG1	0.000	
30	 C55	7.589	3.114	24.305	C.3	1	LIG1	0.000	
31	 C56	8.094	-2.324	23.874	C.3	1	LIG1	0.000	
32	 C57	7.075	-1.650	21.598	C.3	1	LIG1	0.000	
33	 C58	7.930	0.669	23.855	C.3	1	LIG1	0.000	
34	 C59	8.139	-1.576	22.634	C.3	1	LIG1	0.000	
35	 C60	8.610	-0.150	22.701	C.3	1	LIG1	0.000	
@<TRIPOS>BOND
1 5 19 ar
2 6 28 1
3 2 7 2
4 3 8 2
5 8 30 1
6 4 9 2
7 9 26 1
8 5 10 ar
9 11 12 ar
10 12 17 ar
11 13 16 ar
12 14 15 ar
13 15 21 ar
14 1 16 1
15 11 16 ar
16 7 17 1
17 13 18 ar
18 17 18 ar
19 19 23 ar
20 14 20 ar
21 21 24 ar
22 10 22 ar
23 22 24 ar
24 20 23 ar
25 23 24 ar
26 8 25 1
27 22 26 1
28 26 32 1
29 7 27 1
30 27 33 1
31 25 29 1
32 27 30 1
33 6 31 1
34 32 34 1
35 33 35 1
36 31 34 1
37 9 35 1
38 18 35 1
39 34 35 1
@<TRIPOS>SUBSTRUCTURE
1	LIG1	1	GROUP	1 C	LIG
