# created with PyMOL 3.1.3.1
@<TRIPOS>MOLECULE
predicted
38 43 1                 
SMALL
USER_CHARGES
@<TRIPOS>ATOM
1	CL29	13.293	-2.018	22.053	Cl	1	LIG1	0.000	
2	 O26	10.051	3.510	23.653	O.2	1	LIG1	0.000	
3	 O27	5.533	3.966	23.471	O.2	1	LIG1	0.000	
4	 O28	8.422	1.444	20.837	O.2	1	LIG1	0.000	
5	 N30	6.019	0.023	17.411	N.2	1	LIG1	0.000	
6	 N31	6.152	-4.077	23.703	N.2	1	LIG1	0.000	
7	 C32	9.646	2.348	23.585	C.2	1	LIG1	0.000	
8	 C33	6.675	3.852	23.313	C.2	1	LIG1	0.000	
9	 C34	8.023	0.407	21.348	C.2	1	LIG1	0.000	
10	 C35	6.193	-5.402	23.490	C.2	1	LIG1	0.000	
11	 C36	6.710	-0.335	18.471	C.2	1	LIG1	0.000	
12	 C37	12.721	0.397	22.876	C.2	1	LIG1	0.000	
13	 C38	11.893	1.419	23.210	C.2	1	LIG1	0.000	
14	 C39	10.833	-0.997	22.364	C.2	1	LIG1	0.000	
15	 C40	2.682	2.012	20.264	C.2	1	LIG1	0.000	
16	 C41	3.385	1.648	21.389	C.2	1	LIG1	0.000	
17	 C42	7.488	-5.860	23.364	C.2	1	LIG1	0.000	
18	 C43	12.207	-0.813	22.439	C.2	1	LIG1	0.000	
19	 C44	10.528	1.250	23.171	C.2	1	LIG1	0.000	
20	 C45	9.980	0.012	22.782	C.2	1	LIG1	0.000	
21	 C46	4.858	0.654	17.568	C.2	1	LIG1	0.000	
22	 C47	3.166	1.683	18.998	C.2	1	LIG1	0.000	
23	 C48	4.552	0.966	21.262	C.2	1	LIG1	0.000	
24	 C49	6.273	-0.052	19.772	C.2	1	LIG1	0.000	
25	 C50	8.297	-4.689	23.500	C.2	1	LIG1	0.000	
26	 C51	4.340	0.999	18.832	C.2	1	LIG1	0.000	
27	 C52	5.059	0.642	19.989	C.2	1	LIG1	0.000	
28	 N53	7.221	4.373	22.231	N.pl3	1	LIG1	0.000	
29	 N54	7.043	-0.394	20.855	N.pl3	1	LIG1	0.000	
30	 N55	8.297	2.066	23.807	N.pl3	1	LIG1	0.000	
31	 N56	7.432	-3.675	23.660	N.2	1	LIG1	0.000	
32	 C57	6.468	5.184	21.315	C.3	1	LIG1	0.000	
33	 C58	7.468	3.109	24.308	C.3	1	LIG1	0.000	
34	 C59	6.900	-1.585	21.594	C.3	1	LIG1	0.000	
35	 C60	7.776	-2.258	23.890	C.3	1	LIG1	0.000	
36	 C61	7.784	0.701	23.807	C.3	1	LIG1	0.000	
37	 C62	7.996	-1.561	22.635	C.3	1	LIG1	0.000	
38	 C63	8.482	-0.134	22.676	C.3	1	LIG1	0.000	
@<TRIPOS>BOND
1 5 21 ar
2 2 7 2
3 3 8 2
4 8 33 1
5 4 9 2
6 9 29 1
7 6 10 ar
8 5 11 ar
9 12 13 ar
10 13 19 ar
11 14 18 ar
12 15 16 ar
13 16 23 ar
14 10 17 ar
15 1 18 1
16 12 18 ar
17 7 19 1
18 14 20 ar
19 19 20 ar
20 21 26 ar
21 15 22 ar
22 23 27 ar
23 11 24 ar
24 24 27 ar
25 17 25 ar
26 22 26 ar
27 26 27 ar
28 8 28 1
29 24 29 1
30 29 34 1
31 7 30 1
32 30 36 1
33 6 31 ar
34 25 31 ar
35 28 32 1
36 30 33 1
37 34 37 1
38 31 35 1
39 36 38 1
40 35 37 1
41 9 38 1
42 20 38 1
43 37 38 1
@<TRIPOS>SUBSTRUCTURE
1	LIG1	1	GROUP	1 C	LIG
