# created with PyMOL 3.1.3.1
@<TRIPOS>MOLECULE
predicted
38 43 1                 
SMALL
USER_CHARGES
@<TRIPOS>ATOM
1	CL37	-13.787	-3.513	-22.102	Cl	1	LIG1	0.000	
2	 O35	-10.507	1.932	-24.144	O.2	1	LIG1	0.000	
3	 O36	-8.931	0.127	-21.178	O.2	1	LIG1	0.000	
4	 N38	-6.597	-0.893	-17.586	N.2	1	LIG1	0.000	
5	 O39	-4.979	5.573	-23.553	O.3	1	LIG1	0.000	
6	 C40	-10.125	0.785	-23.980	C.2	1	LIG1	0.000	
7	 C41	-8.528	-0.945	-21.582	C.2	1	LIG1	0.000	
8	 C42	-7.250	-1.367	-18.627	C.2	1	LIG1	0.000	
9	 C43	-13.204	-1.115	-23.128	C.2	1	LIG1	0.000	
10	 C44	-12.380	-0.103	-23.529	C.2	1	LIG1	0.000	
11	 C45	-11.311	-2.452	-22.496	C.2	1	LIG1	0.000	
12	 C46	-3.260	0.907	-20.529	C.2	1	LIG1	0.000	
13	 C47	-3.915	0.413	-21.626	C.2	1	LIG1	0.000	
14	 C48	-12.693	-2.276	-22.603	C.2	1	LIG1	0.000	
15	 C49	-11.026	-0.276	-23.485	C.2	1	LIG1	0.000	
16	 C50	-10.467	-1.476	-22.999	C.2	1	LIG1	0.000	
17	 C51	-5.453	-0.242	-17.765	C.2	1	LIG1	0.000	
18	 C52	-3.761	0.692	-19.254	C.2	1	LIG1	0.000	
19	 C53	-5.062	-0.284	-21.461	C.2	1	LIG1	0.000	
20	 C54	-6.815	-1.198	-19.935	C.2	1	LIG1	0.000	
21	 C55	-4.928	-0.006	-19.055	C.2	1	LIG1	0.000	
22	 C56	-5.608	-0.489	-20.174	C.2	1	LIG1	0.000	
23	 N57	-7.547	-1.650	-21.011	N.pl3	1	LIG1	0.000	
24	 N58	-8.785	0.494	-24.166	N.pl3	1	LIG1	0.000	
25	 C59	-5.721	6.028	-21.314	C.3	1	LIG1	0.000	
26	 C60	-7.307	6.190	-23.253	C.3	1	LIG1	0.000	
27	 C61	-5.056	4.761	-24.760	C.3	1	LIG1	0.000	
28	 C62	-7.894	1.483	-24.628	C.3	1	LIG1	0.000	
29	 C63	-6.165	5.483	-22.642	C.3	1	LIG1	0.000	
30	 C64	-8.193	-3.784	-23.911	C.3	1	LIG1	0.000	
31	 C65	-7.374	-2.907	-21.658	C.3	1	LIG1	0.000	
32	 C66	-8.306	-0.852	-24.061	C.3	1	LIG1	0.000	
33	 C67	-5.426	3.312	-24.485	C.3	1	LIG1	0.000	
34	 C68	-7.125	1.999	-23.453	C.3	1	LIG1	0.000	
35	 C69	-6.451	4.006	-22.391	C.3	1	LIG1	0.000	
36	 C70	-8.470	-2.977	-22.716	C.3	1	LIG1	0.000	
37	 C71	-8.988	-1.588	-22.879	C.3	1	LIG1	0.000	
38	 N72	-6.643	3.308	-23.671	N.3	1	LIG1	0.000	
@<TRIPOS>BOND
1 4 17 ar
2 5 29 1
3 2 6 2
4 6 15 1
5 3 7 2
6 7 37 1
7 4 8 ar
8 9 14 ar
9 9 10 ar
10 11 16 ar
11 12 13 ar
12 13 19 ar
13 1 14 1
14 11 14 ar
15 10 15 ar
16 15 16 ar
17 17 21 ar
18 12 18 ar
19 19 22 ar
20 8 20 ar
21 20 22 ar
22 18 21 ar
23 21 22 ar
24 7 23 1
25 20 23 1
26 6 24 1
27 24 28 1
28 5 27 1
29 28 34 1
30 25 29 1
31 26 29 1
32 29 35 1
33 30 36 1
34 23 31 1
35 24 32 1
36 27 33 1
37 34 38 1
38 31 36 1
39 36 37 1
40 16 37 1
41 32 37 1
42 33 38 1
43 35 38 1
@<TRIPOS>SUBSTRUCTURE
1	LIG1	1	GROUP	1 C	LIG
