# created with PyMOL 3.1.3.1
@<TRIPOS>MOLECULE
predicted
25 28 1                 
SMALL
USER_CHARGES
@<TRIPOS>ATOM
1	 O23	8.137	0.761	20.623	O.2	1	LIG1	0.000	
2	 N24	5.999	0.333	16.842	N.2	1	LIG1	0.000	
3	 C25	7.776	-0.341	21.003	C.2	1	LIG1	0.000	
4	 C26	6.553	-0.382	17.835	C.2	1	LIG1	0.000	
5	 C27	13.169	-1.133	22.823	C.2	1	LIG1	0.000	
6	 C28	12.428	-0.886	21.709	C.2	1	LIG1	0.000	
7	 C29	12.592	-1.082	24.042	C.2	1	LIG1	0.000	
8	 C30	11.063	-0.619	21.826	C.2	1	LIG1	0.000	
9	 C31	11.216	-0.788	24.137	C.2	1	LIG1	0.000	
10	 C32	2.768	2.130	19.871	C.2	1	LIG1	0.000	
11	 C33	3.324	1.426	20.890	C.2	1	LIG1	0.000	
12	 C34	10.451	-0.554	23.041	C.2	1	LIG1	0.000	
13	 C35	4.952	1.079	17.066	C.2	1	LIG1	0.000	
14	 C36	3.289	2.033	18.610	C.2	1	LIG1	0.000	
15	 C37	4.412	0.632	20.703	C.2	1	LIG1	0.000	
16	 C38	6.092	-0.322	19.133	C.2	1	LIG1	0.000	
17	 C39	4.387	1.217	18.352	C.2	1	LIG1	0.000	
18	 C40	4.960	0.493	19.412	C.2	1	LIG1	0.000	
19	 N41	8.180	-0.893	22.148	N.pl3	1	LIG1	0.000	
20	 C42	6.789	-1.145	20.173	C.3	1	LIG1	0.000	
21	 C43	7.233	-3.052	24.850	C.3	1	LIG1	0.000	
22	 C44	7.765	-2.187	22.598	C.3	1	LIG1	0.000	
23	 C45	8.414	-0.848	24.414	C.3	1	LIG1	0.000	
24	 C46	8.169	-2.313	24.004	C.3	1	LIG1	0.000	
25	 C47	8.965	-0.194	23.171	C.3	1	LIG1	0.000	
@<TRIPOS>BOND
1 2 13 ar
2 1 3 2
3 3 20 1
4 2 4 ar
5 5 7 ar
6 5 6 ar
7 7 9 ar
8 6 8 ar
9 10 11 ar
10 11 15 ar
11 8 12 ar
12 9 12 ar
13 13 17 ar
14 10 14 ar
15 15 18 ar
16 4 16 ar
17 16 18 ar
18 14 17 ar
19 17 18 ar
20 3 19 1
21 19 22 1
22 16 20 1
23 21 24 1
24 23 25 1
25 22 24 1
26 23 24 1
27 12 25 1
28 19 25 1
@<TRIPOS>SUBSTRUCTURE
1	LIG1	1	GROUP	1 C	LIG
