# created with PyMOL 3.1.3.1
@<TRIPOS>MOLECULE
predicted
37 41 1                 
SMALL
USER_CHARGES
@<TRIPOS>ATOM
1	CL31	13.250	-1.774	20.555	Cl	1	LIG1	0.000	
2	 O28	8.238	1.441	20.740	O.2	1	LIG1	0.000	
3	 O29	6.012	-5.655	20.137	O.2	1	LIG1	0.000	
4	 N32	6.058	0.374	17.258	N.2	1	LIG1	0.000	
5	 C33	7.679	0.503	21.323	C.2	1	LIG1	0.000	
6	 C34	6.214	-4.671	20.743	C.2	1	LIG1	0.000	
7	 C35	6.467	0.009	18.467	C.2	1	LIG1	0.000	
8	 C36	12.221	-1.397	24.380	C.2	1	LIG1	0.000	
9	 C37	12.903	-1.759	23.231	C.2	1	LIG1	0.000	
10	 C38	7.114	-1.114	24.283	C.2	1	LIG1	0.000	
11	 C39	7.563	-2.406	22.310	C.2	1	LIG1	0.000	
12	 C40	11.053	-0.661	24.250	C.2	1	LIG1	0.000	
13	 C41	11.250	-0.641	21.878	C.2	1	LIG1	0.000	
14	 C42	6.484	-2.213	24.875	C.2	1	LIG1	0.000	
15	 C43	2.845	2.435	20.447	C.2	1	LIG1	0.000	
16	 C44	2.451	2.798	19.199	C.2	1	LIG1	0.000	
17	 C45	12.424	-1.374	21.987	C.2	1	LIG1	0.000	
18	 C46	7.618	-1.208	23.004	C.2	1	LIG1	0.000	
19	 C47	6.896	-3.492	22.822	C.2	1	LIG1	0.000	
20	 C48	10.594	-0.261	23.008	C.2	1	LIG1	0.000	
21	 C49	6.398	-3.424	24.176	C.2	1	LIG1	0.000	
22	 C50	5.016	1.106	17.125	C.2	1	LIG1	0.000	
23	 C51	3.954	1.658	20.642	C.2	1	LIG1	0.000	
24	 C52	3.157	2.376	18.109	C.2	1	LIG1	0.000	
25	 C53	5.840	0.400	19.647	C.2	1	LIG1	0.000	
26	 C54	4.276	1.574	18.238	C.2	1	LIG1	0.000	
27	 C55	4.689	1.194	19.527	C.2	1	LIG1	0.000	
28	 N56	8.209	-0.068	22.396	N.pl3	1	LIG1	0.000	
29	 N57	6.679	-4.664	22.049	N.pl3	1	LIG1	0.000	
30	 C58	6.323	-0.027	20.953	C.3	1	LIG1	0.000	
31	 C59	9.351	0.575	22.955	C.3	1	LIG1	0.000	
32	 C60	6.263	-3.333	18.588	C.3	1	LIG1	0.000	
33	 C61	5.926	-3.387	20.037	C.3	1	LIG1	0.000	
34	 C62	5.867	-4.625	24.819	C.3	1	LIG1	0.000	
35	 C63	6.791	-5.895	22.792	C.3	1	LIG1	0.000	
36	 C64	5.739	-5.814	23.937	C.3	1	LIG1	0.000	
37	 F30	2.741	2.752	16.890	 F	1	LIG1	0.000	
@<TRIPOS>BOND
1 4 22 ar
2 2 5 2
3 5 30 1
4 3 6 2
5 6 29 1
6 4 7 ar
7 8 9 ar
8 9 17 ar
9 10 18 ar
10 11 19 ar
11 8 12 ar
12 10 14 ar
13 15 23 ar
14 15 16 ar
15 1 17 1
16 13 17 ar
17 11 18 ar
18 18 28 1
19 12 20 ar
20 13 20 ar
21 14 21 ar
22 19 21 ar
23 22 26 ar
24 23 27 ar
25 16 24 ar
26 24 37 1
27 7 25 ar
28 25 27 ar
29 24 26 ar
30 26 27 ar
31 5 28 1
32 28 31 1
33 19 29 1
34 29 35 1
35 25 30 1
36 20 31 1
37 32 33 1
38 6 33 1
39 21 34 1
40 35 36 1
41 34 36 1
@<TRIPOS>SUBSTRUCTURE
1	LIG1	1	GROUP	1 C	LIG
