# created with PyMOL 3.1.3.1
@<TRIPOS>MOLECULE
predicted
35 39 1                 
SMALL
USER_CHARGES
@<TRIPOS>ATOM
1	CL27	13.487	-1.958	22.142	Cl	1	LIG1	0.000	
2	 N23	7.481	-4.553	24.387	N.1	1	LIG1	0.000	
3	 O24	10.165	3.504	23.878	O.2	1	LIG1	0.000	
4	 O25	7.875	5.190	24.026	O.2	1	LIG1	0.000	
5	 O26	8.548	1.473	20.977	O.2	1	LIG1	0.000	
6	 C28	7.751	-3.529	24.091	C.1	1	LIG1	0.000	
7	 N29	6.128	-0.017	17.558	N.2	1	LIG1	0.000	
8	 C30	9.757	2.356	23.765	C.2	1	LIG1	0.000	
9	 C31	7.344	4.264	23.552	C.2	1	LIG1	0.000	
10	 C32	8.183	0.433	21.492	C.2	1	LIG1	0.000	
11	 C33	6.853	-0.352	18.614	C.2	1	LIG1	0.000	
12	 C34	12.897	0.475	23.052	C.2	1	LIG1	0.000	
13	 C35	12.052	1.484	23.403	C.2	1	LIG1	0.000	
14	 C36	11.018	-0.932	22.495	C.2	1	LIG1	0.000	
15	 C37	2.747	1.837	20.432	C.2	1	LIG1	0.000	
16	 C38	3.477	1.498	21.549	C.2	1	LIG1	0.000	
17	 C39	12.387	-0.728	22.595	C.2	1	LIG1	0.000	
18	 C40	10.687	1.297	23.356	C.2	1	LIG1	0.000	
19	 C41	10.157	0.061	22.932	C.2	1	LIG1	0.000	
20	 C42	4.949	0.577	17.708	C.2	1	LIG1	0.000	
21	 C43	3.236	1.531	19.160	C.2	1	LIG1	0.000	
22	 C44	4.668	0.866	21.408	C.2	1	LIG1	0.000	
23	 C45	6.434	-0.083	19.915	C.2	1	LIG1	0.000	
24	 C46	4.443	0.893	18.987	C.2	1	LIG1	0.000	
25	 C47	5.185	0.558	20.130	C.2	1	LIG1	0.000	
26	 N48	6.797	4.342	22.333	N.pl3	1	LIG1	0.000	
27	 N49	7.216	-0.384	21.002	N.pl3	1	LIG1	0.000	
28	 N50	8.384	2.055	23.943	N.pl3	1	LIG1	0.000	
29	 C51	6.688	5.565	21.617	C.3	1	LIG1	0.000	
30	 C52	7.354	2.982	24.265	C.3	1	LIG1	0.000	
31	 C53	8.243	-2.183	24.092	C.3	1	LIG1	0.000	
32	 C54	7.114	-1.577	21.775	C.3	1	LIG1	0.000	
33	 C55	7.947	0.710	23.963	C.3	1	LIG1	0.000	
34	 C56	8.201	-1.496	22.799	C.3	1	LIG1	0.000	
35	 C57	8.662	-0.104	22.832	C.3	1	LIG1	0.000	
@<TRIPOS>BOND
1 2 6 3
2 7 20 ar
3 3 8 2
4 4 9 2
5 9 30 1
6 5 10 2
7 10 27 1
8 7 11 ar
9 12 13 ar
10 13 18 ar
11 14 17 ar
12 15 16 ar
13 16 22 ar
14 1 17 1
15 12 17 ar
16 8 18 1
17 14 19 ar
18 18 19 ar
19 20 24 ar
20 15 21 ar
21 22 25 ar
22 11 23 ar
23 23 25 ar
24 21 24 ar
25 24 25 ar
26 9 26 1
27 23 27 1
28 27 32 1
29 8 28 1
30 28 33 1
31 26 29 1
32 28 30 1
33 6 31 1
34 32 34 1
35 33 35 1
36 31 34 1
37 10 35 1
38 19 35 1
39 34 35 1
@<TRIPOS>SUBSTRUCTURE
1	LIG1	1	GROUP	1 C	LIG
