# created with PyMOL 3.1.3.1
@<TRIPOS>MOLECULE
predicted
33 37 1                 
SMALL
USER_CHARGES
@<TRIPOS>ATOM
1	CL27	13.410	-2.023	22.351	Cl	1	LIG1	0.000	
2	 O24	10.136	3.549	23.851	O.2	1	LIG1	0.000	
3	 O25	8.116	5.201	23.773	O.2	1	LIG1	0.000	
4	 O26	8.528	1.529	21.041	O.2	1	LIG1	0.000	
5	 N28	6.163	0.091	17.572	N.2	1	LIG1	0.000	
6	 C29	9.723	2.402	23.800	C.2	1	LIG1	0.000	
7	 C30	7.377	4.326	23.519	C.2	1	LIG1	0.000	
8	 C31	8.125	0.496	21.572	C.2	1	LIG1	0.000	
9	 C32	6.840	-0.271	18.654	C.2	1	LIG1	0.000	
10	 C33	12.836	0.457	23.160	C.2	1	LIG1	0.000	
11	 C34	12.000	1.493	23.459	C.2	1	LIG1	0.000	
12	 C35	10.953	-0.932	22.625	C.2	1	LIG1	0.000	
13	 C36	2.806	2.168	20.324	C.2	1	LIG1	0.000	
14	 C37	3.496	1.813	21.469	C.2	1	LIG1	0.000	
15	 C38	12.318	-0.748	22.734	C.2	1	LIG1	0.000	
16	 C39	10.638	1.321	23.411	C.2	1	LIG1	0.000	
17	 C40	10.091	0.085	23.023	C.2	1	LIG1	0.000	
18	 C41	5.004	0.752	17.688	C.2	1	LIG1	0.000	
19	 C42	3.303	1.819	19.073	C.2	1	LIG1	0.000	
20	 C43	4.657	1.119	21.372	C.2	1	LIG1	0.000	
21	 C44	6.410	0.049	19.941	C.2	1	LIG1	0.000	
22	 C45	4.485	1.115	18.953	C.2	1	LIG1	0.000	
23	 C46	5.186	0.763	20.113	C.2	1	LIG1	0.000	
24	 N47	6.608	4.388	22.439	N.pl3	1	LIG1	0.000	
25	 N48	7.153	-0.294	21.051	N.pl3	1	LIG1	0.000	
26	 N49	8.354	2.125	23.992	N.pl3	1	LIG1	0.000	
27	 C50	6.545	5.555	21.623	C.3	1	LIG1	0.000	
28	 C51	7.361	3.096	24.318	C.3	1	LIG1	0.000	
29	 C52	7.010	-1.504	21.794	C.3	1	LIG1	0.000	
30	 C53	7.906	0.751	24.065	C.3	1	LIG1	0.000	
31	 C54	8.060	-1.397	22.893	C.3	1	LIG1	0.000	
32	 C55	8.591	-0.054	22.909	C.3	1	LIG1	0.000	
33	 N56	8.236	-2.365	23.702	N.3	1	LIG1	0.000	
@<TRIPOS>BOND
1 5 18 ar
2 2 6 2
3 3 7 2
4 7 28 1
5 4 8 2
6 8 25 1
7 5 9 ar
8 10 11 ar
9 11 16 ar
10 12 15 ar
11 13 14 ar
12 14 20 ar
13 1 15 1
14 10 15 ar
15 6 16 1
16 12 17 ar
17 16 17 ar
18 18 22 ar
19 13 19 ar
20 20 23 ar
21 9 21 ar
22 21 23 ar
23 19 22 ar
24 22 23 ar
25 7 24 1
26 21 25 1
27 25 29 1
28 6 26 1
29 26 30 1
30 24 27 1
31 26 28 1
32 29 31 1
33 30 32 1
34 31 33 1
35 8 32 1
36 17 32 1
37 31 32 1
@<TRIPOS>SUBSTRUCTURE
1	LIG1	1	GROUP	1 C	LIG
