# created with PyMOL 3.1.3.1
@<TRIPOS>MOLECULE
predicted
38 45 1                 
SMALL
USER_CHARGES
@<TRIPOS>ATOM
1	CL35	13.506	-1.920	22.009	Cl	1	LIG1	0.000	
2	 O33	10.318	3.696	23.449	O.2	1	LIG1	0.000	
3	 O34	8.614	1.590	20.684	O.2	1	LIG1	0.000	
4	 N36	6.175	0.098	17.327	N.2	1	LIG1	0.000	
5	 O37	3.451	-2.256	26.459	O.3	1	LIG1	0.000	
6	 O38	6.947	-1.891	24.371	O.3	1	LIG1	0.000	
7	 C39	9.900	2.535	23.395	C.2	1	LIG1	0.000	
8	 C40	8.265	0.556	21.228	C.2	1	LIG1	0.000	
9	 C41	6.903	-0.243	18.371	C.2	1	LIG1	0.000	
10	 C42	12.955	0.551	22.743	C.2	1	LIG1	0.000	
11	 C43	12.137	1.596	23.043	C.2	1	LIG1	0.000	
12	 C44	11.049	-0.832	22.296	C.2	1	LIG1	0.000	
13	 C45	2.865	1.997	20.223	C.2	1	LIG1	0.000	
14	 C46	3.599	1.643	21.335	C.2	1	LIG1	0.000	
15	 C47	12.422	-0.658	22.369	C.2	1	LIG1	0.000	
16	 C48	10.783	1.439	23.029	C.2	1	LIG1	0.000	
17	 C49	10.226	0.199	22.683	C.2	1	LIG1	0.000	
18	 C50	5.001	0.701	17.502	C.2	1	LIG1	0.000	
19	 C51	3.320	1.685	18.953	C.2	1	LIG1	0.000	
20	 C52	4.775	0.997	21.186	C.2	1	LIG1	0.000	
21	 C53	6.499	0.025	19.688	C.2	1	LIG1	0.000	
22	 C54	4.516	1.030	18.781	C.2	1	LIG1	0.000	
23	 C55	5.257	0.686	19.909	C.2	1	LIG1	0.000	
24	 N56	7.304	-0.271	20.759	N.pl3	1	LIG1	0.000	
25	 N57	8.557	2.286	23.594	N.pl3	1	LIG1	0.000	
26	 C58	4.605	-1.367	26.429	C.3	1	LIG1	0.000	
27	 C59	4.236	-3.269	25.815	C.3	1	LIG1	0.000	
28	 C60	6.651	-2.575	25.511	C.3	1	LIG1	0.000	
29	 C61	7.675	3.343	23.914	C.3	1	LIG1	0.000	
30	 C62	5.294	-2.415	25.862	C.3	1	LIG1	0.000	
31	 C63	8.153	-2.003	23.852	C.3	1	LIG1	0.000	
32	 C64	7.222	-1.444	21.534	C.3	1	LIG1	0.000	
33	 C65	8.076	0.961	23.627	C.3	1	LIG1	0.000	
34	 C66	5.596	5.335	21.619	C.3	1	LIG1	0.000	
35	 C67	7.212	3.964	22.624	C.3	1	LIG1	0.000	
36	 C68	8.270	-1.327	22.569	C.3	1	LIG1	0.000	
37	 C69	8.754	0.085	22.581	C.3	1	LIG1	0.000	
38	 N70	6.190	4.878	22.782	N.3	1	LIG1	0.000	
@<TRIPOS>BOND
1 4 18 ar
2 5 27 1
3 6 28 1
4 2 7 2
5 3 8 2
6 8 24 1
7 4 9 ar
8 10 11 ar
9 11 16 ar
10 12 15 ar
11 13 14 ar
12 14 20 ar
13 1 15 1
14 10 15 ar
15 7 16 1
16 12 17 ar
17 16 17 ar
18 18 22 ar
19 13 19 ar
20 20 23 ar
21 9 21 ar
22 21 23 ar
23 19 22 ar
24 22 23 ar
25 21 24 1
26 24 32 1
27 7 25 1
28 25 33 1
29 5 26 1
30 26 27 1
31 28 30 1
32 25 29 1
33 5 30 1
34 26 30 1
35 27 30 1
36 6 31 1
37 32 36 1
38 33 37 1
39 34 38 1
40 29 35 1
41 31 36 1
42 8 37 1
43 17 37 1
44 36 37 1
45 35 38 1
@<TRIPOS>SUBSTRUCTURE
1	LIG1	1	GROUP	1 C	LIG
