# created with PyMOL 3.1.3.1
@<TRIPOS>MOLECULE
predicted
36 40 1                 
SMALL
USER_CHARGES
@<TRIPOS>ATOM
1	 O29	8.537	1.535	20.782	O.2	1	LIG1	0.000	
2	 O30	6.141	-5.608	20.049	O.2	1	LIG1	0.000	
3	 N32	6.097	0.366	17.395	N.2	1	LIG1	0.000	
4	 C33	8.012	0.574	21.356	C.2	1	LIG1	0.000	
5	 C34	6.372	-4.631	20.674	C.2	1	LIG1	0.000	
6	 C35	6.636	0.071	18.567	C.2	1	LIG1	0.000	
7	 C36	12.620	-1.296	21.526	C.2	1	LIG1	0.000	
8	 C37	13.361	-1.545	22.654	C.2	1	LIG1	0.000	
9	 C38	7.657	-1.222	24.285	C.2	1	LIG1	0.000	
10	 C39	7.912	-2.384	22.220	C.2	1	LIG1	0.000	
11	 C40	11.428	-0.630	21.620	C.2	1	LIG1	0.000	
12	 C41	11.735	-0.408	23.935	C.2	1	LIG1	0.000	
13	 C42	7.078	-2.356	24.860	C.2	1	LIG1	0.000	
14	 C43	2.444	2.455	19.629	C.2	1	LIG1	0.000	
15	 C44	2.994	2.160	20.849	C.2	1	LIG1	0.000	
16	 C45	12.922	-1.105	23.856	C.2	1	LIG1	0.000	
17	 C46	8.032	-1.234	22.969	C.2	1	LIG1	0.000	
18	 C47	7.281	-3.515	22.722	C.2	1	LIG1	0.000	
19	 C48	10.999	-0.144	22.818	C.2	1	LIG1	0.000	
20	 C49	6.917	-3.526	24.106	C.2	1	LIG1	0.000	
21	 C50	4.968	0.980	17.355	C.2	1	LIG1	0.000	
22	 C51	3.083	2.073	18.467	C.2	1	LIG1	0.000	
23	 C52	4.189	1.502	20.949	C.2	1	LIG1	0.000	
24	 C53	6.071	0.425	19.805	C.2	1	LIG1	0.000	
25	 C54	4.284	1.397	18.527	C.2	1	LIG1	0.000	
26	 C55	4.840	1.094	19.772	C.2	1	LIG1	0.000	
27	 N56	8.581	-0.038	22.384	N.pl3	1	LIG1	0.000	
28	 N57	6.994	-4.660	21.918	N.pl3	1	LIG1	0.000	
29	 C58	6.659	0.042	21.066	C.3	1	LIG1	0.000	
30	 C59	9.706	0.605	22.949	C.3	1	LIG1	0.000	
31	 C60	6.467	-3.186	18.622	C.3	1	LIG1	0.000	
32	 C61	5.971	-3.351	20.051	C.3	1	LIG1	0.000	
33	 C62	6.422	-4.760	24.697	C.3	1	LIG1	0.000	
34	 C63	7.227	-5.915	22.559	C.3	1	LIG1	0.000	
35	 C64	6.586	-5.974	23.903	C.3	1	LIG1	0.000	
36	BR31	13.889	-1.408	25.430	Br	1	LIG1	0.000	
@<TRIPOS>BOND
1 3 21 ar
2 1 4 2
3 4 29 1
4 2 5 2
5 5 28 1
6 3 6 ar
7 7 8 ar
8 8 16 ar
9 9 17 ar
10 10 18 ar
11 7 11 ar
12 9 13 ar
13 14 15 ar
14 15 23 ar
15 12 16 ar
16 16 36 1
17 10 17 ar
18 17 27 1
19 11 19 ar
20 12 19 ar
21 13 20 ar
22 18 20 ar
23 21 25 ar
24 14 22 ar
25 23 26 ar
26 6 24 ar
27 24 26 ar
28 22 25 ar
29 25 26 ar
30 4 27 1
31 27 30 1
32 18 28 1
33 28 34 1
34 24 29 1
35 19 30 1
36 31 32 1
37 5 32 1
38 20 33 1
39 34 35 1
40 33 35 1
@<TRIPOS>SUBSTRUCTURE
1	LIG1	1	GROUP	1 C	LIG
