# created with PyMOL 3.1.3.1
@<TRIPOS>MOLECULE
predicted
22 25 1                 
SMALL
USER_CHARGES
@<TRIPOS>ATOM
1	 O17	8.386	1.305	20.715	O.2	1	LIG1	0.000	
2	 N18	6.189	0.235	17.269	N.2	1	LIG1	0.000	
3	 S19	12.967	0.208	23.652	S.2	1	LIG1	0.000	
4	 C20	8.305	0.171	21.215	C.2	1	LIG1	0.000	
5	 C21	6.878	-0.307	18.275	C.2	1	LIG1	0.000	
6	 C22	13.421	-1.220	22.946	C.2	1	LIG1	0.000	
7	 C23	11.342	0.022	23.411	C.2	1	LIG1	0.000	
8	 C24	12.298	-1.835	22.453	C.2	1	LIG1	0.000	
9	 C25	2.957	1.936	20.300	C.2	1	LIG1	0.000	
10	 C26	3.633	1.416	21.347	C.2	1	LIG1	0.000	
11	 C27	11.128	-1.146	22.689	C.2	1	LIG1	0.000	
12	 C28	5.078	0.878	17.477	C.2	1	LIG1	0.000	
13	 C29	3.420	1.774	19.018	C.2	1	LIG1	0.000	
14	 C30	4.797	0.730	21.160	C.2	1	LIG1	0.000	
15	 C31	6.461	-0.175	19.566	C.2	1	LIG1	0.000	
16	 C32	4.578	1.080	18.767	C.2	1	LIG1	0.000	
17	 C33	5.286	0.537	19.862	C.2	1	LIG1	0.000	
18	 N34	8.957	-0.300	22.325	N.pl3	1	LIG1	0.000	
19	 C35	7.317	-0.782	20.653	C.3	1	LIG1	0.000	
20	 C36	9.700	-1.516	22.315	C.3	1	LIG1	0.000	
21	 C37	10.261	0.990	23.704	C.3	1	LIG1	0.000	
22	 C38	8.931	0.370	23.558	C.3	1	LIG1	0.000	
@<TRIPOS>BOND
1 1 4 2
2 2 12 ar
3 3 6 ar
4 4 18 1
5 4 19 1
6 2 5 ar
7 6 8 ar
8 3 7 ar
9 7 11 ar
10 8 11 ar
11 9 10 ar
12 10 14 ar
13 11 20 1
14 12 16 ar
15 9 13 ar
16 14 17 ar
17 5 15 ar
18 15 17 ar
19 13 16 ar
20 16 17 ar
21 18 20 1
22 18 22 1
23 15 19 1
24 7 21 1
25 21 22 1
@<TRIPOS>SUBSTRUCTURE
1	LIG1	1	GROUP	1 C	LIG
