# created with PyMOL 3.1.3.1
@<TRIPOS>MOLECULE
predicted
39 44 1                 
SMALL
USER_CHARGES
@<TRIPOS>ATOM
1	CL35	13.419	-2.113	21.921	Cl	1	LIG1	0.000	
2	 O32	10.296	3.544	23.472	O.2	1	LIG1	0.000	
3	 O33	8.556	1.549	20.705	O.2	1	LIG1	0.000	
4	 N36	6.144	0.152	17.259	N.2	1	LIG1	0.000	
5	 O37	4.040	-4.511	26.605	O.3	1	LIG1	0.000	
6	 O38	6.873	-2.208	24.345	O.3	1	LIG1	0.000	
7	 C39	9.862	2.392	23.403	C.2	1	LIG1	0.000	
8	 C40	8.198	0.501	21.212	C.2	1	LIG1	0.000	
9	 C41	6.860	-0.227	18.312	C.2	1	LIG1	0.000	
10	 C42	12.894	0.361	22.696	C.2	1	LIG1	0.000	
11	 C43	12.082	1.419	23.018	C.2	1	LIG1	0.000	
12	 C44	10.972	-0.984	22.245	C.2	1	LIG1	0.000	
13	 C45	2.866	2.095	20.149	C.2	1	LIG1	0.000	
14	 C46	3.572	1.697	21.270	C.2	1	LIG1	0.000	
15	 C47	12.347	-0.833	22.304	C.2	1	LIG1	0.000	
16	 C48	10.730	1.284	23.015	C.2	1	LIG1	0.000	
17	 C49	10.154	0.060	22.657	C.2	1	LIG1	0.000	
18	 C50	4.995	0.784	17.428	C.2	1	LIG1	0.000	
19	 C51	3.334	1.791	18.872	C.2	1	LIG1	0.000	
20	 C52	4.735	1.016	21.127	C.2	1	LIG1	0.000	
21	 C53	6.453	0.029	19.630	C.2	1	LIG1	0.000	
22	 C54	4.504	1.106	18.705	C.2	1	LIG1	0.000	
23	 C55	5.224	0.719	19.848	C.2	1	LIG1	0.000	
24	 N56	7.239	-0.310	20.711	N.pl3	1	LIG1	0.000	
25	 N57	8.522	2.159	23.604	N.pl3	1	LIG1	0.000	
26	 C58	5.136	-3.809	27.272	C.3	1	LIG1	0.000	
27	 C59	4.337	-3.701	25.331	C.3	1	LIG1	0.000	
28	 C60	6.739	-2.994	25.504	C.3	1	LIG1	0.000	
29	 C61	7.642	3.220	23.939	C.3	1	LIG1	0.000	
30	 C62	5.364	-2.948	26.065	C.3	1	LIG1	0.000	
31	 C63	8.094	-2.183	23.776	C.3	1	LIG1	0.000	
32	 C64	7.125	-1.519	21.463	C.3	1	LIG1	0.000	
33	 C65	8.008	0.842	23.625	C.3	1	LIG1	0.000	
34	 C66	5.679	5.318	21.585	C.3	1	LIG1	0.000	
35	 C67	7.157	3.807	22.627	C.3	1	LIG1	0.000	
36	 C68	8.149	-1.445	22.518	C.3	1	LIG1	0.000	
37	 C69	8.664	-0.013	22.547	C.3	1	LIG1	0.000	
38	 N70	6.217	4.814	22.776	N.3	1	LIG1	0.000	
39	 F34	4.970	-1.620	26.213	 F	1	LIG1	0.000	
@<TRIPOS>BOND
1 4 18 ar
2 5 27 1
3 6 28 1
4 2 7 2
5 3 8 2
6 8 24 1
7 4 9 ar
8 10 11 ar
9 11 16 ar
10 12 15 ar
11 13 14 ar
12 14 20 ar
13 1 15 1
14 10 15 ar
15 7 16 1
16 12 17 ar
17 16 17 ar
18 18 22 ar
19 13 19 ar
20 20 23 ar
21 9 21 ar
22 21 23 ar
23 19 22 ar
24 22 23 ar
25 21 24 1
26 24 32 1
27 7 25 1
28 25 33 1
29 5 26 1
30 28 30 1
31 25 29 1
32 26 30 1
33 27 30 1
34 30 39 1
35 6 31 1
36 32 36 1
37 33 37 1
38 34 38 1
39 29 35 1
40 31 36 1
41 8 37 1
42 17 37 1
43 36 37 1
44 35 38 1
@<TRIPOS>SUBSTRUCTURE
1	LIG1	1	GROUP	1 C	LIG
