predicted
  xed2sdf           3D
 
 63 69  0  0  1  0  0  0  0  0999 V2000
   13.8620   -2.0530   23.0010 Cl  0  0  0  0  0  0  0  0  0  0  0  0
   10.2760    3.6080   23.8330 O   0  0  0  0  0  0  0  0  0  0  0  0
    8.4790    1.4380   21.4870 O   0  0  0  0  0  0  0  0  0  0  0  0
    4.9790   -6.4300   23.7680 N   0  0  0  0  0  0  0  0  0  0  0  0
    7.0380   -5.5320   22.9390 N   0  0  0  0  0  0  0  0  0  0  0  0
    6.0900   -4.6760   24.9760 N   0  0  0  0  0  0  0  0  0  0  0  0
    6.5580    5.2040   22.1980 N   0  0  0  0  0  0  0  0  0  0  0  0
    7.4590    4.9250   23.1910 N   0  0  0  0  0  0  0  0  0  0  0  0
    6.0930   -0.2540   17.9260 N   0  0  0  0  0  0  0  0  0  0  0  0
    5.9220    3.2720   23.1670 O   0  0  0  0  0  0  0  0  0  0  0  0
    9.9340    2.4360   23.8960 C   0  0  0  0  0  0  0  0  0  0  0  0
    8.2020    0.3580   21.9590 C   0  0  0  0  0  0  0  0  0  0  0  0
    5.9670   -6.3500   22.8600 C   0  0  0  0  0  0  0  0  0  0  0  0
    5.0870   -5.5520   24.7920 C   0  0  0  0  0  0  0  0  0  0  0  0
    7.0500   -4.7390   24.0280 C   0  0  0  0  0  0  0  0  0  0  0  0
    5.6880    4.2100   22.2150 C   0  0  0  0  0  0  0  0  0  0  0  0
    7.0490    3.7860   23.7160 C   0  0  0  0  0  0  0  0  0  0  0  0
    6.7980   -0.5650   19.0320 C   0  0  0  0  0  0  0  0  0  0  0  0
   13.1830    0.5500   23.4750 C   0  0  0  0  0  0  0  0  0  0  0  0
   12.2620    1.5820   23.6570 C   0  0  0  0  0  0  0  0  0  0  0  0
   11.3480   -1.0110   23.0770 C   0  0  0  0  0  0  0  0  0  0  0  0
    2.7250    1.8620   20.7100 C   0  0  0  0  0  0  0  0  0  0  0  0
    3.4640    1.5600   21.8610 C   0  0  0  0  0  0  0  0  0  0  0  0
   12.7210   -0.7420   23.1920 C   0  0  0  0  0  0  0  0  0  0  0  0
   10.8800    1.3200   23.5650 C   0  0  0  0  0  0  0  0  0  0  0  0
   10.3930    0.0190   23.2540 C   0  0  0  0  0  0  0  0  0  0  0  0
    4.9480    0.4390   18.0790 C   0  0  0  0  0  0  0  0  0  0  0  0
    3.2140    1.4930   19.4500 C   0  0  0  0  0  0  0  0  0  0  0  0
    4.6910    0.8850   21.7510 C   0  0  0  0  0  0  0  0  0  0  0  0
    6.4030   -0.1880   20.3270 C   0  0  0  0  0  0  0  0  0  0  0  0
    4.4420    0.8200   19.3330 C   0  0  0  0  0  0  0  0  0  0  0  0
    5.1850    0.5070   20.4860 C   0  0  0  0  0  0  0  0  0  0  0  0
    8.1580   -3.9300   24.1550 N   0  0  0  0  0  0  0  0  0  0  0  0
    7.2460   -0.4820   21.4340 N   0  0  0  0  0  0  0  0  0  0  0  0
    8.6740    2.0380   24.3370 N   0  0  0  0  0  0  0  0  0  0  0  0
    7.7280    3.0460   24.8390 C   0  0  0  0  0  0  0  0  0  0  0  0
    8.0810   -2.4920   24.4630 C   0  0  0  0  0  0  0  0  0  0  0  0
    7.0860   -1.6850   22.2290 C   0  0  0  0  0  0  0  0  0  0  0  0
    8.2640    0.6030   24.4020 C   0  0  0  0  0  0  0  0  0  0  0  0
    8.3370   -1.7160   23.1410 C   0  0  0  0  0  0  0  0  0  0  0  0
    8.8470   -0.2170   23.2240 C   0  0  0  0  0  0  0  0  0  0  0  0
    5.8850   -7.0010   21.9920 H   0  0  0  0  0  0  0  0  0  0  0  0
    4.2760   -5.5200   25.5150 H   0  0  0  0  0  0  0  0  0  0  0  0
    4.8200    4.0860   21.5820 H   0  0  0  0  0  0  0  0  0  0  0  0
    7.7220   -1.1170   18.8740 H   0  0  0  0  0  0  0  0  0  0  0  0
   14.2450    0.7520   23.5670 H   0  0  0  0  0  0  0  0  0  0  0  0
   12.6190    2.5760   23.9250 H   0  0  0  0  0  0  0  0  0  0  0  0
   11.0670   -2.0350   22.8650 H   0  0  0  0  0  0  0  0  0  0  0  0
    1.7710    2.3740   20.7960 H   0  0  0  0  0  0  0  0  0  0  0  0
    3.0810    1.8410   22.8380 H   0  0  0  0  0  0  0  0  0  0  0  0
    4.4300    0.7020   17.1650 H   0  0  0  0  0  0  0  0  0  0  0  0
    2.6240    1.7130   18.5720 H   0  0  0  0  0  0  0  0  0  0  0  0
    5.2440    0.6560   22.6550 H   0  0  0  0  0  0  0  0  0  0  0  0
    8.9240   -4.1720   23.5380 H   0  0  0  0  0  0  0  0  0  0  0  0
    8.2880    3.7630   25.4530 H   0  0  0  0  0  0  0  0  0  0  0  0
    6.9860    2.5660   25.4880 H   0  0  0  0  0  0  0  0  0  0  0  0
    7.1060   -2.2150   24.8920 H   0  0  0  0  0  0  0  0  0  0  0  0
    8.8530   -2.2520   25.2020 H   0  0  0  0  0  0  0  0  0  0  0  0
    6.1650   -1.5850   22.8220 H   0  0  0  0  0  0  0  0  0  0  0  0
    7.0340   -2.5710   21.5810 H   0  0  0  0  0  0  0  0  0  0  0  0
    7.1690    0.5230   24.3860 H   0  0  0  0  0  0  0  0  0  0  0  0
    8.6510    0.1840   25.3380 H   0  0  0  0  0  0  0  0  0  0  0  0
    9.0700   -2.2730   22.5500 H   0  0  0  0  0  0  0  0  0  0  0  0
  8  7  1  0
 11  2  2  0
 12  3  2  0
 13  4  2  0
 13  5  1  0
 14  4  1  0
 14  6  2  0
 15  5  2  0
 15  6  1  0
 16  7  2  0
 16 10  1  0
 17  8  2  0
 17 10  1  0
 18  9  2  0
 20 19  1  0
 23 22  1  0
 24  1  1  0
 24 19  2  0
 24 21  1  0
 25 11  1  0
 25 20  2  0
 26 21  2  0
 26 25  1  0
 27  9  1  0
 28 22  2  0
 29 23  2  0
 30 18  1  0
 31 27  2  0
 31 28  1  0
 32 29  1  0
 32 30  2  0
 32 31  1  0
 33 15  1  0
 34 12  1  0
 34 30  1  0
 35 11  1  0
 36 17  1  0
 36 35  1  0
 37 33  1  0
 38 34  1  0
 39 35  1  0
 40 37  1  0
 40 38  1  0
 41 12  1  0
 41 26  1  0
 41 39  1  0
 41 40  1  0
 13 42  1  0
 14 43  1  0
 16 44  1  0
 18 45  1  0
 19 46  1  0
 20 47  1  0
 21 48  1  0
 22 49  1  0
 23 50  1  0
 27 51  1  0
 28 52  1  0
 29 53  1  0
 33 54  1  0
 36 55  1  0
 36 56  1  0
 37 57  1  0
 37 58  1  0
 38 59  1  0
 38 60  1  0
 39 61  1  0
 39 62  1  0
 40 63  1  0
M  END
>  <Favorite_cresset>
false

>  <Protein_cresset>
sars_P

>  <MW_cresset>
568.0

>  <#Atoms_cresset>
41

>  <SlogP_cresset>
2.6

>  <TPSA_cresset>
143.1

>  <Flexibility_cresset>
5.1

>  <HBA_cresset>
12

>  <HBD_cresset>
1

>  <Rof5_cresset>
2

>  <Confs_cresset>
0

>  <Poses_cresset>
0

$$$$
predicted (1)
  xed2sdf           3D
 
 51 54  0  0  0  0  0  0  0  0999 V2000
   13.5390   -3.1210   21.8520 Cl  0  0  0  0  0  0  0  0  0  0  0  0
    7.9610    0.9150   21.5970 O   0  0  0  0  0  0  0  0  0  0  0  0
    5.9840   -0.1410   17.8540 N   0  0  0  0  0  0  0  0  0  0  0  0
    7.0970   -5.0440   26.2890 O   0  0  0  0  0  0  0  0  0  0  0  0
    7.8590   -0.2310   22.0130 C   0  0  0  0  0  0  0  0  0  0  0  0
    6.6090   -0.7090   18.9000 C   0  0  0  0  0  0  0  0  0  0  0  0
   12.5850   -1.6700   25.4790 C   0  0  0  0  0  0  0  0  0  0  0  0
   13.2130   -2.3890   24.4570 C   0  0  0  0  0  0  0  0  0  0  0  0
    6.9660   -2.6610   25.7730 C   0  0  0  0  0  0  0  0  0  0  0  0
    8.3440   -4.1580   24.4320 C   0  0  0  0  0  0  0  0  0  0  0  0
    7.3530   -1.5770   24.9740 C   0  0  0  0  0  0  0  0  0  0  0  0
    8.7330   -3.0650   23.6360 C   0  0  0  0  0  0  0  0  0  0  0  0
   11.5230   -0.7920   25.1820 C   0  0  0  0  0  0  0  0  0  0  0  0
   11.5410   -1.5650   22.9020 C   0  0  0  0  0  0  0  0  0  0  0  0
    2.6300    1.6550   20.8600 C   0  0  0  0  0  0  0  0  0  0  0  0
    3.2890    1.0840   21.9580 C   0  0  0  0  0  0  0  0  0  0  0  0
   12.7040   -2.3120   23.1570 C   0  0  0  0  0  0  0  0  0  0  0  0
    7.4510   -3.9600   25.5050 C   0  0  0  0  0  0  0  0  0  0  0  0
    8.2250   -1.7830   23.8920 C   0  0  0  0  0  0  0  0  0  0  0  0
   10.9720   -0.7630   23.8960 C   0  0  0  0  0  0  0  0  0  0  0  0
    4.8520    0.5530   18.0780 C   0  0  0  0  0  0  0  0  0  0  0  0
    3.1500    1.4880   19.5710 C   0  0  0  0  0  0  0  0  0  0  0  0
    4.4640    0.3460   21.7620 C   0  0  0  0  0  0  0  0  0  0  0  0
    6.1320   -0.6240   20.2180 C   0  0  0  0  0  0  0  0  0  0  0  0
    4.3040    0.7150   19.3640 C   0  0  0  0  0  0  0  0  0  0  0  0
    4.9600    0.1250   20.4620 C   0  0  0  0  0  0  0  0  0  0  0  0
    8.6120   -0.6820   23.0880 N   0  0  0  0  0  0  0  0  0  0  0  0
    6.3870   -4.8960   27.5390 C   0  0  0  0  0  0  0  0  0  0  0  0
    6.9500   -1.2700   21.3240 C   0  0  0  0  0  0  0  0  0  0  0  0
    9.7720    0.1090   23.5550 C   0  0  0  0  0  0  0  0  0  0  0  0
    7.5480   -1.2180   18.6780 H   0  0  0  0  0  0  0  0  0  0  0  0
   12.9420   -1.7720   26.4940 H   0  0  0  0  0  0  0  0  0  0  0  0
   14.0910   -3.0000   24.6650 H   0  0  0  0  0  0  0  0  0  0  0  0
    6.2930   -2.4730   26.6030 H   0  0  0  0  0  0  0  0  0  0  0  0
    8.7340   -5.1510   24.2220 H   0  0  0  0  0  0  0  0  0  0  0  0
    6.9700   -0.5830   25.1860 H   0  0  0  0  0  0  0  0  0  0  0  0
    9.4170   -3.2060   22.8040 H   0  0  0  0  0  0  0  0  0  0  0  0
   11.1170   -0.1550   25.9560 H   0  0  0  0  0  0  0  0  0  0  0  0
   11.0540   -1.6040   21.9380 H   0  0  0  0  0  0  0  0  0  0  0  0
    1.7320    2.2490   21.0120 H   0  0  0  0  0  0  0  0  0  0  0  0
    2.9120    1.2340   22.9640 H   0  0  0  0  0  0  0  0  0  0  0  0
    4.4220    1.0330   17.2020 H   0  0  0  0  0  0  0  0  0  0  0  0
    2.6640    1.9640   18.7310 H   0  0  0  0  0  0  0  0  0  0  0  0
    4.9970   -0.0160   22.6330 H   0  0  0  0  0  0  0  0  0  0  0  0
    5.3680   -4.5130   27.3800 H   0  0  0  0  0  0  0  0  0  0  0  0
    6.3170   -5.8620   28.0530 H   0  0  0  0  0  0  0  0  0  0  0  0
    6.9300   -4.1990   28.1890 H   0  0  0  0  0  0  0  0  0  0  0  0
    7.5810   -2.0620   20.9050 H   0  0  0  0  0  0  0  0  0  0  0  0
    6.3030   -1.7730   22.0550 H   0  0  0  0  0  0  0  0  0  0  0  0
    9.4790    0.6890   24.4410 H   0  0  0  0  0  0  0  0  0  0  0  0
   10.0840    0.8030   22.7600 H   0  0  0  0  0  0  0  0  0  0  0  0
  5  2  2  0
  6  3  2  0
  8  7  2  0
 11  9  2  0
 12 10  1  0
 13  7  1  0
 16 15  1  0
 17  1  1  0
 17  8  1  0
 17 14  2  0
 18  4  1  0
 18  9  1  0
 18 10  2  0
 19 11  1  0
 19 12  2  0
 20 13  2  0
 20 14  1  0
 21  3  1  0
 22 15  2  0
 23 16  2  0
 24  6  1  0
 25 21  2  0
 25 22  1  0
 26 23  1  0
 26 24  2  0
 26 25  1  0
 27  5  1  0
 27 19  1  0
 28  4  1  0
 29  5  1  0
 29 24  1  0
 30 20  1  0
 30 27  1  0
  6 31  1  0
  7 32  1  0
  8 33  1  0
  9 34  1  0
 10 35  1  0
 11 36  1  0
 12 37  1  0
 13 38  1  0
 14 39  1  0
 15 40  1  0
 16 41  1  0
 21 42  1  0
 22 43  1  0
 23 44  1  0
 28 45  1  0
 28 46  1  0
 28 47  1  0
 29 48  1  0
 29 49  1  0
 30 50  1  0
 30 51  1  0
M  END
>  <Favorite_cresset>
false

>  <Protein_cresset>
sars_P

>  <MW_cresset>
416.9

>  <#Atoms_cresset>
30

>  <SlogP_cresset>
5.7

>  <TPSA_cresset>
42.4

>  <Flexibility_cresset>
5.0

>  <HBA_cresset>
4

>  <HBD_cresset>
0

>  <Rof5_cresset>
1

>  <Confs_cresset>
0

>  <Poses_cresset>
0

$$$$
predicted (2)
  xed2sdf           3D
 
 55 59  0  0  1  0  0  0  0  0999 V2000
   13.8440   -2.0860   23.0120 Cl  0  0  0  0  0  0  0  0  0  0  0  0
   10.1280    3.4570   23.9670 O   0  0  0  0  0  0  0  0  0  0  0  0
    7.9310    5.1530   24.6950 O   0  0  0  0  0  0  0  0  0  0  0  0
    8.5270    1.2710   21.4740 O   0  0  0  0  0  0  0  0  0  0  0  0
    5.9580   -0.3190   17.9880 N   0  0  0  0  0  0  0  0  0  0  0  0
    9.7670    2.2920   23.9680 C   0  0  0  0  0  0  0  0  0  0  0  0
    7.4130    4.2140   24.1080 C   0  0  0  0  0  0  0  0  0  0  0  0
    8.1780    0.2280   21.9730 C   0  0  0  0  0  0  0  0  0  0  0  0
    6.6690   -0.6460   19.0860 C   0  0  0  0  0  0  0  0  0  0  0  0
   13.0750    0.4710   23.5220 C   0  0  0  0  0  0  0  0  0  0  0  0
   12.1260    1.4690   23.7450 C   0  0  0  0  0  0  0  0  0  0  0  0
   11.2820   -1.1420   23.1490 C   0  0  0  0  0  0  0  0  0  0  0  0
    2.7530    2.0070   20.7840 C   0  0  0  0  0  0  0  0  0  0  0  0
    3.5220    1.7450   21.9260 C   0  0  0  0  0  0  0  0  0  0  0  0
   12.6520   -0.8340   23.2460 C   0  0  0  0  0  0  0  0  0  0  0  0
   10.7480    1.1780   23.6680 C   0  0  0  0  0  0  0  0  0  0  0  0
   10.3050   -0.1360   23.3510 C   0  0  0  0  0  0  0  0  0  0  0  0
    4.8540    0.4320   18.1500 C   0  0  0  0  0  0  0  0  0  0  0  0
    3.1880    1.5700   19.5250 C   0  0  0  0  0  0  0  0  0  0  0  0
    4.7150    1.0110   21.8130 C   0  0  0  0  0  0  0  0  0  0  0  0
    6.3280   -0.2210   20.3810 C   0  0  0  0  0  0  0  0  0  0  0  0
    4.3950    0.8580   19.4080 C   0  0  0  0  0  0  0  0  0  0  0  0
    5.1550    0.5490   20.5540 C   0  0  0  0  0  0  0  0  0  0  0  0
    6.7490    4.3690   22.8990 N   0  0  0  0  0  0  0  0  0  0  0  0
    7.1700   -0.5520   21.4710 N   0  0  0  0  0  0  0  0  0  0  0  0
    8.4530    1.8860   24.2620 N   0  0  0  0  0  0  0  0  0  0  0  0
    6.5720    5.6760   22.2410 C   0  0  0  0  0  0  0  0  0  0  0  0
    7.3710    2.7960   24.7150 C   0  0  0  0  0  0  0  0  0  0  0  0
    6.9730   -1.7510   22.2420 C   0  0  0  0  0  0  0  0  0  0  0  0
    8.1250    0.4430   24.3790 C   0  0  0  0  0  0  0  0  0  0  0  0
    8.2400   -1.8670   23.1320 C   0  0  0  0  0  0  0  0  0  0  0  0
    8.7720   -0.3780   23.2470 C   0  0  0  0  0  0  0  0  0  0  0  0
    7.9580   -2.5710   24.4070 N   0  0  0  0  0  0  0  0  0  0  0  0
    7.5500   -1.2640   18.9230 H   0  0  0  0  0  0  0  0  0  0  0  0
   14.1330    0.7110   23.5830 H   0  0  0  0  0  0  0  0  0  0  0  0
   12.4680    2.4730   23.9890 H   0  0  0  0  0  0  0  0  0  0  0  0
   11.0000   -2.1650   22.9220 H   0  0  0  0  0  0  0  0  0  0  0  0
    1.8180    2.5480   20.8830 H   0  0  0  0  0  0  0  0  0  0  0  0
    3.1760    2.0830   22.9000 H   0  0  0  0  0  0  0  0  0  0  0  0
    4.3450    0.7140   17.2370 H   0  0  0  0  0  0  0  0  0  0  0  0
    2.5720    1.7620   18.6520 H   0  0  0  0  0  0  0  0  0  0  0  0
    5.2760    0.7980   22.7140 H   0  0  0  0  0  0  0  0  0  0  0  0
    6.3190    3.5550   22.4690 H   0  0  0  0  0  0  0  0  0  0  0  0
    5.5320    5.7970   21.9220 H   0  0  0  0  0  0  0  0  0  0  0  0
    7.2240    5.7600   21.3650 H   0  0  0  0  0  0  0  0  0  0  0  0
    6.8140    6.4900   22.9340 H   0  0  0  0  0  0  0  0  0  0  0  0
    6.3910    2.3520   24.4900 H   0  0  0  0  0  0  0  0  0  0  0  0
    7.4500    2.8920   25.8020 H   0  0  0  0  0  0  0  0  0  0  0  0
    6.0560   -1.6060   22.8280 H   0  0  0  0  0  0  0  0  0  0  0  0
    6.8520   -2.6000   21.5620 H   0  0  0  0  0  0  0  0  0  0  0  0
    7.0350    0.3050   24.3510 H   0  0  0  0  0  0  0  0  0  0  0  0
    8.5160    0.0900   25.3370 H   0  0  0  0  0  0  0  0  0  0  0  0
    8.9610   -2.4580   22.5480 H   0  0  0  0  0  0  0  0  0  0  0  0
    8.7940   -2.6500   24.9810 H   0  0  0  0  0  0  0  0  0  0  0  0
    7.2790   -2.0490   24.9650 H   0  0  0  0  0  0  0  0  0  0  0  0
  6  2  2  0
  7  3  2  0
  8  4  2  0
  9  5  2  0
 11 10  1  0
 14 13  1  0
 15  1  1  0
 15 10  2  0
 15 12  1  0
 16  6  1  0
 16 11  2  0
 17 12  2  0
 17 16  1  0
 18  5  1  0
 19 13  2  0
 20 14  2  0
 21  9  1  0
 22 18  2  0
 22 19  1  0
 23 20  1  0
 23 21  2  0
 23 22  1  0
 24  7  1  0
 25  8  1  0
 25 21  1  0
 26  6  1  0
 27 24  1  0
 28  7  1  0
 28 26  1  0
 29 25  1  0
 30 26  1  0
 31 29  1  0
 32  8  1  0
 32 17  1  0
 32 30  1  0
 32 31  1  0
 33 31  1  0
  9 34  1  0
 10 35  1  0
 11 36  1  0
 12 37  1  0
 13 38  1  0
 14 39  1  0
 18 40  1  0
 19 41  1  0
 20 42  1  0
 24 43  1  0
 27 44  1  0
 27 45  1  0
 27 46  1  0
 28 47  1  0
 28 48  1  0
 29 49  1  0
 29 50  1  0
 30 51  1  0
 30 52  1  0
 31 53  1  0
 33 54  1  0
 33 55  1  0
M  END
>  <Favorite_cresset>
false

>  <Protein_cresset>
sars_P

>  <MW_cresset>
463.9

>  <#Atoms_cresset>
33

>  <SlogP_cresset>
1.7

>  <TPSA_cresset>
108.6

>  <Flexibility_cresset>
3.9

>  <HBA_cresset>
8

>  <HBD_cresset>
3

>  <Rof5_cresset>
0

>  <Confs_cresset>
0

>  <Poses_cresset>
0

$$$$
predicted (3)
  xed2sdf           3D
 
 67 73  0  0  1  0  0  0  0  0999 V2000
   13.5370   -2.2940   22.7970 Cl  0  0  0  0  0  0  0  0  0  0  0  0
   10.0310    3.4370   23.8660 O   0  0  0  0  0  0  0  0  0  0  0  0
    8.2670    1.4570   21.4940 O   0  0  0  0  0  0  0  0  0  0  0  0
    9.3690   -6.9750   25.0980 N   0  0  0  0  0  0  0  0  0  0  0  0
    4.4220    4.7070   22.7160 N   0  0  0  0  0  0  0  0  0  0  0  0
    4.0860    3.9330   23.7680 N   0  0  0  0  0  0  0  0  0  0  0  0
    8.6400   -4.7070   25.4640 N   0  0  0  0  0  0  0  0  0  0  0  0
    6.0580   -0.0080   17.7360 N   0  0  0  0  0  0  0  0  0  0  0  0
    9.6820    2.2680   23.9260 C   0  0  0  0  0  0  0  0  0  0  0  0
    7.9930    0.3420   21.8760 C   0  0  0  0  0  0  0  0  0  0  0  0
    9.4150   -5.7810   25.7250 C   0  0  0  0  0  0  0  0  0  0  0  0
    8.4880   -7.0810   24.0840 C   0  0  0  0  0  0  0  0  0  0  0  0
    5.7110    4.8030   22.3310 C   0  0  0  0  0  0  0  0  0  0  0  0
    5.0370    3.2800   24.4700 C   0  0  0  0  0  0  0  0  0  0  0  0
    6.7190   -0.4260   18.8300 C   0  0  0  0  0  0  0  0  0  0  0  0
    7.7540   -4.8360   24.4550 C   0  0  0  0  0  0  0  0  0  0  0  0
    7.6490   -6.0260   23.7170 C   0  0  0  0  0  0  0  0  0  0  0  0
   12.9080    0.2980   23.3860 C   0  0  0  0  0  0  0  0  0  0  0  0
   12.0150    1.3550   23.6000 C   0  0  0  0  0  0  0  0  0  0  0  0
    6.7390    4.1580   23.0140 C   0  0  0  0  0  0  0  0  0  0  0  0
   11.0360   -1.1870   22.9680 C   0  0  0  0  0  0  0  0  0  0  0  0
    2.5460    1.7330   20.5970 C   0  0  0  0  0  0  0  0  0  0  0  0
    3.2470    1.3220   21.7380 C   0  0  0  0  0  0  0  0  0  0  0  0
   12.4170   -0.9710   23.0800 C   0  0  0  0  0  0  0  0  0  0  0  0
   10.6170    1.1440   23.5270 C   0  0  0  0  0  0  0  0  0  0  0  0
    6.4080    3.3910   24.1460 C   0  0  0  0  0  0  0  0  0  0  0  0
   10.1050   -0.1360   23.1940 C   0  0  0  0  0  0  0  0  0  0  0  0
    4.9220    0.6930   17.9200 C   0  0  0  0  0  0  0  0  0  0  0  0
    3.1040    1.5460   19.3310 C   0  0  0  0  0  0  0  0  0  0  0  0
    4.5040    0.7160   21.6050 C   0  0  0  0  0  0  0  0  0  0  0  0
    6.2910   -0.1470   20.1400 C   0  0  0  0  0  0  0  0  0  0  0  0
    4.3510    0.9160   19.1860 C   0  0  0  0  0  0  0  0  0  0  0  0
    5.0510    0.4950   20.3260 C   0  0  0  0  0  0  0  0  0  0  0  0
    6.9910   -3.7350   24.1060 N   0  0  0  0  0  0  0  0  0  0  0  0
    7.1050   -0.4930   21.2410 N   0  0  0  0  0  0  0  0  0  0  0  0
    8.4180    1.8830   24.4000 N   0  0  0  0  0  0  0  0  0  0  0  0
    7.4990    2.8370   25.0560 C   0  0  0  0  0  0  0  0  0  0  0  0
    7.4070   -2.3460   24.3430 C   0  0  0  0  0  0  0  0  0  0  0  0
    6.8940   -1.7160   21.9770 C   0  0  0  0  0  0  0  0  0  0  0  0
    7.9200    0.4940   24.3150 C   0  0  0  0  0  0  0  0  0  0  0  0
    7.9820   -1.7510   23.0470 C   0  0  0  0  0  0  0  0  0  0  0  0
    8.5550   -0.2950   23.1410 C   0  0  0  0  0  0  0  0  0  0  0  0
   10.1670   -5.6700   26.5060 H   0  0  0  0  0  0  0  0  0  0  0  0
    8.4860   -8.0090   23.5180 H   0  0  0  0  0  0  0  0  0  0  0  0
    5.9500    5.4450   21.4870 H   0  0  0  0  0  0  0  0  0  0  0  0
    4.6820    2.6720   25.3050 H   0  0  0  0  0  0  0  0  0  0  0  0
    7.6370   -0.9820   18.6450 H   0  0  0  0  0  0  0  0  0  0  0  0
    6.9630   -6.1260   22.8840 H   0  0  0  0  0  0  0  0  0  0  0  0
   13.9780    0.4480   23.4940 H   0  0  0  0  0  0  0  0  0  0  0  0
   12.4140    2.3270   23.8810 H   0  0  0  0  0  0  0  0  0  0  0  0
    7.7590    4.2940   22.6760 H   0  0  0  0  0  0  0  0  0  0  0  0
   10.7340   -2.1960   22.7270 H   0  0  0  0  0  0  0  0  0  0  0  0
    1.5750    2.2120   20.6850 H   0  0  0  0  0  0  0  0  0  0  0  0
    2.8240    1.4810   22.7250 H   0  0  0  0  0  0  0  0  0  0  0  0
    4.4830    1.1090   17.0220 H   0  0  0  0  0  0  0  0  0  0  0  0
    2.5520    1.8790   18.4700 H   0  0  0  0  0  0  0  0  0  0  0  0
    5.0370    0.4060   22.4950 H   0  0  0  0  0  0  0  0  0  0  0  0
    6.3340   -3.8700   23.3470 H   0  0  0  0  0  0  0  0  0  0  0  0
    8.0800    3.6920   25.4300 H   0  0  0  0  0  0  0  0  0  0  0  0
    7.0470    2.3460   25.9320 H   0  0  0  0  0  0  0  0  0  0  0  0
    6.5220   -1.7780   24.6500 H   0  0  0  0  0  0  0  0  0  0  0  0
    8.1560   -2.2650   25.1370 H   0  0  0  0  0  0  0  0  0  0  0  0
    5.9010   -1.6910   22.4380 H   0  0  0  0  0  0  0  0  0  0  0  0
    6.9700   -2.5970   21.3350 H   0  0  0  0  0  0  0  0  0  0  0  0
    6.8270    0.5270   24.1940 H   0  0  0  0  0  0  0  0  0  0  0  0
    8.1430   -0.0210   25.2560 H   0  0  0  0  0  0  0  0  0  0  0  0
    8.7360   -2.4290   22.6540 H   0  0  0  0  0  0  0  0  0  0  0  0
  6  5  2  0
  9  2  2  0
 10  3  2  0
 11  4  2  0
 11  7  1  0
 12  4  1  0
 13  5  1  0
 14  6  1  0
 15  8  2  0
 16  7  2  0
 17 12  2  0
 17 16  1  0
 19 18  1  0
 20 13  2  0
 23 22  1  0
 24  1  1  0
 24 18  2  0
 24 21  1  0
 25  9  1  0
 25 19  2  0
 26 14  2  0
 26 20  1  0
 27 21  2  0
 27 25  1  0
 28  8  1  0
 29 22  2  0
 30 23  2  0
 31 15  1  0
 32 28  2  0
 32 29  1  0
 33 30  1  0
 33 31  2  0
 33 32  1  0
 34 16  1  0
 35 10  1  0
 35 31  1  0
 36  9  1  0
 37 26  1  0
 37 36  1  0
 38 34  1  0
 39 35  1  0
 40 36  1  0
 41 38  1  0
 41 39  1  0
 42 10  1  0
 42 27  1  0
 42 40  1  0
 42 41  1  0
 11 43  1  0
 12 44  1  0
 13 45  1  0
 14 46  1  0
 15 47  1  0
 17 48  1  0
 18 49  1  0
 19 50  1  0
 20 51  1  0
 21 52  1  0
 22 53  1  0
 23 54  1  0
 28 55  1  0
 29 56  1  0
 30 57  1  0
 34 58  1  0
 37 59  1  0
 37 60  1  0
 38 61  1  0
 38 62  1  0
 39 63  1  0
 39 64  1  0
 40 65  1  0
 40 66  1  0
 41 67  1  0
M  END
>  <Favorite_cresset>
false

>  <Protein_cresset>
sars_P

>  <MW_cresset>
577.0

>  <#Atoms_cresset>
42

>  <SlogP_cresset>
4.2

>  <TPSA_cresset>
117.1

>  <Flexibility_cresset>
5.1

>  <HBA_cresset>
10

>  <HBD_cresset>
1

>  <Rof5_cresset>
1

>  <Confs_cresset>
0

>  <Poses_cresset>
0

$$$$
predicted (4)
  xed2sdf           3D
 
 41 44  0  0  1  0  0  0  0  0999 V2000
    7.3950    1.2750   21.9250 O   0  0  0  0  0  0  0  0  0  0  0  0
    5.9680   -0.1390   17.7960 N   0  0  0  0  0  0  0  0  0  0  0  0
   13.2850   -1.3930   23.5950 S   0  0  0  0  0  0  0  0  0  0  0  0
    7.7270    0.1120   22.0820 C   0  0  0  0  0  0  0  0  0  0  0  0
    6.6190   -0.6400   18.8640 C   0  0  0  0  0  0  0  0  0  0  0  0
   13.6100    0.3480   23.4960 C   0  0  0  0  0  0  0  0  0  0  0  0
   11.5850   -1.0940   23.2670 C   0  0  0  0  0  0  0  0  0  0  0  0
   12.4620    1.0680   23.2670 C   0  0  0  0  0  0  0  0  0  0  0  0
    2.6570    1.8140   20.7280 C   0  0  0  0  0  0  0  0  0  0  0  0
    3.2830    1.2530   21.8480 C   0  0  0  0  0  0  0  0  0  0  0  0
   11.3090    0.2390   23.1790 C   0  0  0  0  0  0  0  0  0  0  0  0
    4.8320    0.5500   18.0100 C   0  0  0  0  0  0  0  0  0  0  0  0
    3.1410    1.5280   19.4500 C   0  0  0  0  0  0  0  0  0  0  0  0
    4.4300    0.4540   21.6980 C   0  0  0  0  0  0  0  0  0  0  0  0
    6.1670   -0.4970   20.1850 C   0  0  0  0  0  0  0  0  0  0  0  0
    4.2960    0.7490   19.2910 C   0  0  0  0  0  0  0  0  0  0  0  0
    4.9600    0.2100   20.4110 C   0  0  0  0  0  0  0  0  0  0  0  0
    8.8640   -0.2200   22.8310 N   0  0  0  0  0  0  0  0  0  0  0  0
    7.0500   -1.0300   21.3070 C   0  0  0  0  0  0  0  0  0  0  0  0
   10.5140   -2.1260   23.0900 C   0  0  0  0  0  0  0  0  0  0  0  0
    9.1290   -1.5460   23.4760 C   0  0  0  0  0  0  0  0  0  0  0  0
    9.6080    1.7700   24.1740 C   0  0  0  0  0  0  0  0  0  0  0  0
    9.9220    0.8210   22.9920 C   0  0  0  0  0  0  0  0  0  0  0  0
    7.5720   -1.1320   18.6660 H   0  0  0  0  0  0  0  0  0  0  0  0
   14.6130    0.7370   23.5910 H   0  0  0  0  0  0  0  0  0  0  0  0
   12.4340    2.1490   23.1840 H   0  0  0  0  0  0  0  0  0  0  0  0
    1.8020    2.4740   20.8450 H   0  0  0  0  0  0  0  0  0  0  0  0
    2.8790    1.4490   22.8360 H   0  0  0  0  0  0  0  0  0  0  0  0
    4.3990    1.0380   17.1420 H   0  0  0  0  0  0  0  0  0  0  0  0
    2.6290    1.9240   18.5860 H   0  0  0  0  0  0  0  0  0  0  0  0
    4.9160    0.0680   22.5880 H   0  0  0  0  0  0  0  0  0  0  0  0
    7.8600   -1.6400   20.8860 H   0  0  0  0  0  0  0  0  0  0  0  0
    6.4690   -1.6740   21.9760 H   0  0  0  0  0  0  0  0  0  0  0  0
   10.7450   -3.0290   23.6680 H   0  0  0  0  0  0  0  0  0  0  0  0
   10.4650   -2.4400   22.0410 H   0  0  0  0  0  0  0  0  0  0  0  0
    8.3640   -2.2680   23.1770 H   0  0  0  0  0  0  0  0  0  0  0  0
    9.0800   -1.4250   24.5700 H   0  0  0  0  0  0  0  0  0  0  0  0
    8.6100    2.2220   24.0890 H   0  0  0  0  0  0  0  0  0  0  0  0
    9.6480    1.2030   25.1150 H   0  0  0  0  0  0  0  0  0  0  0  0
   10.3480    2.5890   24.2080 H   0  0  0  0  0  0  0  0  0  0  0  0
    9.9610    1.4120   22.0660 H   0  0  0  0  0  0  0  0  0  0  0  0
  4  1  2  0
  5  2  2  0
  6  3  1  0
  7  3  1  0
  8  6  2  0
 10  9  1  0
 11  7  2  0
 11  8  1  0
 12  2  1  0
 13  9  2  0
 14 10  2  0
 15  5  1  0
 16 12  2  0
 16 13  1  0
 17 14  1  0
 17 15  2  0
 17 16  1  0
 18  4  1  0
 19  4  1  0
 19 15  1  0
 20  7  1  0
 21 18  1  0
 21 20  1  0
 23 11  1  0
 23 18  1  0
 23 22  1  0
  5 24  1  0
  6 25  1  0
  8 26  1  0
  9 27  1  0
 10 28  1  0
 12 29  1  0
 13 30  1  0
 14 31  1  0
 19 32  1  0
 19 33  1  0
 20 34  1  0
 20 35  1  0
 21 36  1  0
 21 37  1  0
 22 38  1  0
 22 39  1  0
 22 40  1  0
 23 41  1  0
M  END
>  <Favorite_cresset>
false

>  <Protein_cresset>
sars_P

>  <MW_cresset>
322.4

>  <#Atoms_cresset>
23

>  <SlogP_cresset>
4.0

>  <TPSA_cresset>
33.2

>  <Flexibility_cresset>
2.7

>  <HBA_cresset>
3

>  <HBD_cresset>
0

>  <Rof5_cresset>
0

>  <Confs_cresset>
0

>  <Poses_cresset>
0

$$$$
predicted (5)
  xed2sdf           3D
 
 52 56  0  0  1  0  0  0  0  0999 V2000
    6.2610    3.6250   22.5760 N   0  0  0  0  0  0  0  0  0  0  0  0
   10.2170    3.2320   23.8130 O   0  0  0  0  0  0  0  0  0  0  0  0
    8.6550    1.0390   21.4880 O   0  0  0  0  0  0  0  0  0  0  0  0
    7.3090    3.6440   23.3120 C   0  0  0  0  0  0  0  0  0  0  0  0
    6.0730   -0.2660   18.0270 N   0  0  0  0  0  0  0  0  0  0  0  0
    9.8450    2.0780   23.9540 C   0  0  0  0  0  0  0  0  0  0  0  0
    8.2330    0.0320   22.0070 C   0  0  0  0  0  0  0  0  0  0  0  0
    6.7760   -0.6500   19.1050 C   0  0  0  0  0  0  0  0  0  0  0  0
   13.0800    0.0930   23.6670 C   0  0  0  0  0  0  0  0  0  0  0  0
   12.1780    1.1490   23.8280 C   0  0  0  0  0  0  0  0  0  0  0  0
   11.2170   -1.4450   23.3460 C   0  0  0  0  0  0  0  0  0  0  0  0
    2.7670    1.7710   20.9250 C   0  0  0  0  0  0  0  0  0  0  0  0
    3.4550    1.3390   22.0660 C   0  0  0  0  0  0  0  0  0  0  0  0
   12.5970   -1.2030   23.4580 C   0  0  0  0  0  0  0  0  0  0  0  0
   10.7870    0.9220   23.7350 C   0  0  0  0  0  0  0  0  0  0  0  0
   10.2890   -0.3790   23.4510 C   0  0  0  0  0  0  0  0  0  0  0  0
    4.9520    0.4540   18.2280 C   0  0  0  0  0  0  0  0  0  0  0  0
    3.2770    1.5160   19.6450 C   0  0  0  0  0  0  0  0  0  0  0  0
    4.6750    0.6550   21.9240 C   0  0  0  0  0  0  0  0  0  0  0  0
    6.3830   -0.3580   20.4180 C   0  0  0  0  0  0  0  0  0  0  0  0
    4.4640    0.7810   19.5030 C   0  0  0  0  0  0  0  0  0  0  0  0
    5.1780    0.3560   20.6360 C   0  0  0  0  0  0  0  0  0  0  0  0
    7.2240   -0.7400   21.4800 N   0  0  0  0  0  0  0  0  0  0  0  0
    8.5390    1.7370   24.3180 N   0  0  0  0  0  0  0  0  0  0  0  0
    7.5000    2.7640   24.5310 C   0  0  0  0  0  0  0  0  0  0  0  0
    7.7710   -2.7270   24.5160 C   0  0  0  0  0  0  0  0  0  0  0  0
    7.0050   -1.9610   22.2240 C   0  0  0  0  0  0  0  0  0  0  0  0
    8.1310    0.3140   24.4420 C   0  0  0  0  0  0  0  0  0  0  0  0
    8.1890   -2.0260   23.2090 C   0  0  0  0  0  0  0  0  0  0  0  0
    8.7510   -0.5520   23.3180 C   0  0  0  0  0  0  0  0  0  0  0  0
   13.4670   -2.2330   23.3740 F   0  0  0  0  0  0  0  0  0  0  0  0
    6.3270    4.3720   21.8770 H   0  0  0  0  0  0  0  0  0  0  0  0
    8.0810    4.3870   23.1250 H   0  0  0  0  0  0  0  0  0  0  0  0
    7.7080   -1.1820   18.9120 H   0  0  0  0  0  0  0  0  0  0  0  0
   14.1510    0.2730   23.7310 H   0  0  0  0  0  0  0  0  0  0  0  0
   12.5610    2.1450   24.0360 H   0  0  0  0  0  0  0  0  0  0  0  0
   10.9090   -2.4740   23.1920 H   0  0  0  0  0  0  0  0  0  0  0  0
    1.8330    2.3080   21.0330 H   0  0  0  0  0  0  0  0  0  0  0  0
    3.0420    1.5400   23.0540 H   0  0  0  0  0  0  0  0  0  0  0  0
    4.4410    0.7860   17.3340 H   0  0  0  0  0  0  0  0  0  0  0  0
    2.7510    1.8700   18.7660 H   0  0  0  0  0  0  0  0  0  0  0  0
    5.2020    0.3520   22.8200 H   0  0  0  0  0  0  0  0  0  0  0  0
    6.5520    2.2890   24.8170 H   0  0  0  0  0  0  0  0  0  0  0  0
    7.8190    3.4030   25.3630 H   0  0  0  0  0  0  0  0  0  0  0  0
    6.8430   -2.2900   24.9120 H   0  0  0  0  0  0  0  0  0  0  0  0
    8.5640   -2.6540   25.2680 H   0  0  0  0  0  0  0  0  0  0  0  0
    7.5840   -3.7870   24.2940 H   0  0  0  0  0  0  0  0  0  0  0  0
    6.0370   -1.8980   22.7420 H   0  0  0  0  0  0  0  0  0  0  0  0
    7.0060   -2.8250   21.5460 H   0  0  0  0  0  0  0  0  0  0  0  0
    7.0410    0.2360   24.4210 H   0  0  0  0  0  0  0  0  0  0  0  0
    8.4910   -0.0630   25.4040 H   0  0  0  0  0  0  0  0  0  0  0  0
    8.9280   -2.6340   22.6760 H   0  0  0  0  0  0  0  0  0  0  0  0
  4  1  2  0
  6  2  2  0
  7  3  2  0
  8  5  2  0
 10  9  1  0
 13 12  1  0
 14  9  2  0
 14 11  1  0
 15  6  1  0
 15 10  2  0
 16 11  2  0
 16 15  1  0
 17  5  1  0
 18 12  2  0
 19 13  2  0
 20  8  1  0
 21 17  2  0
 21 18  1  0
 22 19  1  0
 22 20  2  0
 22 21  1  0
 23  7  1  0
 23 20  1  0
 24  6  1  0
 25  4  1  0
 25 24  1  0
 27 23  1  0
 28 24  1  0
 29 26  1  0
 29 27  1  0
 30  7  1  0
 30 16  1  0
 30 28  1  0
 30 29  1  0
 31 14  1  0
  1 32  1  0
  4 33  1  0
  8 34  1  0
  9 35  1  0
 10 36  1  0
 11 37  1  0
 12 38  1  0
 13 39  1  0
 17 40  1  0
 18 41  1  0
 19 42  1  0
 25 43  1  0
 25 44  1  0
 26 45  1  0
 26 46  1  0
 26 47  1  0
 27 48  1  0
 27 49  1  0
 28 50  1  0
 28 51  1  0
 29 52  1  0
M  END
>  <Favorite_cresset>
false

>  <Protein_cresset>
sars_P

>  <MW_cresset>
416.5

>  <#Atoms_cresset>
31

>  <SlogP_cresset>
3.7

>  <TPSA_cresset>
77.4

>  <Flexibility_cresset>
2.9

>  <HBA_cresset>
6

>  <HBD_cresset>
1

>  <Rof5_cresset>
0

>  <Confs_cresset>
0

>  <Poses_cresset>
0

$$$$
predicted (6)
  xed2sdf           3D
 
 64 68  0  0  0  0  0  0  0  0999 V2000
  -13.4830   -3.0420  -21.3380 Cl  0  0  0  0  0  0  0  0  0  0  0  0
   -8.2610   -0.4830  -20.9400 O   0  0  0  0  0  0  0  0  0  0  0  0
   -6.6900   -7.3160  -24.4680 O   0  0  0  0  0  0  0  0  0  0  0  0
   -5.6200   -0.8890  -17.9450 N   0  0  0  0  0  0  0  0  0  0  0  0
   -7.7310   -1.1810  -21.7890 C   0  0  0  0  0  0  0  0  0  0  0  0
   -6.3200   -6.1660  -24.5390 C   0  0  0  0  0  0  0  0  0  0  0  0
   -6.0580   -1.6560  -18.9640 C   0  0  0  0  0  0  0  0  0  0  0  0
  -13.0660   -0.2070  -24.0810 C   0  0  0  0  0  0  0  0  0  0  0  0
   -5.6780   -1.7850  -25.8020 C   0  0  0  0  0  0  0  0  0  0  0  0
  -13.5830   -1.1740  -23.2280 C   0  0  0  0  0  0  0  0  0  0  0  0
   -6.5010   -1.1160  -24.8760 C   0  0  0  0  0  0  0  0  0  0  0  0
  -11.6750   -0.0270  -24.1580 C   0  0  0  0  0  0  0  0  0  0  0  0
  -11.3160   -1.7480  -22.4980 C   0  0  0  0  0  0  0  0  0  0  0  0
   -5.7970   -3.1710  -25.9800 C   0  0  0  0  0  0  0  0  0  0  0  0
   -2.8860    1.6500  -21.0540 C   0  0  0  0  0  0  0  0  0  0  0  0
   -3.3480    0.8710  -22.1260 C   0  0  0  0  0  0  0  0  0  0  0  0
  -12.7200   -1.9480  -22.4520 C   0  0  0  0  0  0  0  0  0  0  0  0
   -7.4820   -1.8270  -24.1560 C   0  0  0  0  0  0  0  0  0  0  0  0
  -10.7840   -0.7840  -23.3890 C   0  0  0  0  0  0  0  0  0  0  0  0
   -7.6560   -3.1910  -24.4000 C   0  0  0  0  0  0  0  0  0  0  0  0
   -6.7760   -3.8640  -25.2570 C   0  0  0  0  0  0  0  0  0  0  0  0
   -4.7490    0.1030  -18.2220 C   0  0  0  0  0  0  0  0  0  0  0  0
   -3.3070    1.3690  -19.7410 C   0  0  0  0  0  0  0  0  0  0  0  0
   -4.2380   -0.1870  -21.8980 C   0  0  0  0  0  0  0  0  0  0  0  0
   -5.6940   -1.4290  -20.3110 C   0  0  0  0  0  0  0  0  0  0  0  0
   -4.2370    0.3370  -19.5120 C   0  0  0  0  0  0  0  0  0  0  0  0
   -4.7140   -0.4450  -20.5890 C   0  0  0  0  0  0  0  0  0  0  0  0
   -8.2120   -1.2130  -23.1040 N   0  0  0  0  0  0  0  0  0  0  0  0
   -6.5110   -2.0820  -21.4280 C   0  0  0  0  0  0  0  0  0  0  0  0
   -9.3210   -0.3190  -23.5090 C   0  0  0  0  0  0  0  0  0  0  0  0
   -5.4850   -5.9910  -22.1100 C   0  0  0  0  0  0  0  0  0  0  0  0
   -5.2070   -5.6800  -23.6050 C   0  0  0  0  0  0  0  0  0  0  0  0
   -8.8150   -3.9570  -23.7660 C   0  0  0  0  0  0  0  0  0  0  0  0
   -9.2130   -5.2560  -24.5250 C   0  0  0  0  0  0  0  0  0  0  0  0
   -8.3410   -5.5250  -25.7710 C   0  0  0  0  0  0  0  0  0  0  0  0
   -6.9530   -5.2500  -25.3830 N   0  0  0  0  0  0  0  0  0  0  0  0
   -6.7890   -2.4240  -18.7040 H   0  0  0  0  0  0  0  0  0  0  0  0
  -13.7520    0.4100  -24.6510 H   0  0  0  0  0  0  0  0  0  0  0  0
   -4.9400   -1.2280  -26.3730 H   0  0  0  0  0  0  0  0  0  0  0  0
  -14.6560   -1.3060  -23.1400 H   0  0  0  0  0  0  0  0  0  0  0  0
   -6.3710   -0.0500  -24.7160 H   0  0  0  0  0  0  0  0  0  0  0  0
  -11.2500    0.7680  -24.7600 H   0  0  0  0  0  0  0  0  0  0  0  0
  -10.6600   -2.3150  -21.8460 H   0  0  0  0  0  0  0  0  0  0  0  0
   -5.1380   -3.6940  -26.6690 H   0  0  0  0  0  0  0  0  0  0  0  0
   -2.2010    2.4700  -21.2460 H   0  0  0  0  0  0  0  0  0  0  0  0
   -3.0090    1.0810  -23.1370 H   0  0  0  0  0  0  0  0  0  0  0  0
   -4.4880    0.7610  -17.3940 H   0  0  0  0  0  0  0  0  0  0  0  0
   -2.9260    1.9560  -18.9070 H   0  0  0  0  0  0  0  0  0  0  0  0
   -4.5270   -0.7890  -22.7530 H   0  0  0  0  0  0  0  0  0  0  0  0
   -6.8770   -3.0650  -21.1210 H   0  0  0  0  0  0  0  0  0  0  0  0
   -5.8910   -2.2790  -22.3050 H   0  0  0  0  0  0  0  0  0  0  0  0
   -9.1550   -0.0350  -24.5590 H   0  0  0  0  0  0  0  0  0  0  0  0
   -9.2570    0.6050  -22.9280 H   0  0  0  0  0  0  0  0  0  0  0  0
   -4.6350   -6.5190  -21.6590 H   0  0  0  0  0  0  0  0  0  0  0  0
   -6.3940   -6.5930  -21.9690 H   0  0  0  0  0  0  0  0  0  0  0  0
   -5.6280   -5.0530  -21.5640 H   0  0  0  0  0  0  0  0  0  0  0  0
   -4.2700   -6.1540  -23.9170 H   0  0  0  0  0  0  0  0  0  0  0  0
   -5.0650   -4.6090  -23.7210 H   0  0  0  0  0  0  0  0  0  0  0  0
   -9.6960   -3.3210  -23.7520 H   0  0  0  0  0  0  0  0  0  0  0  0
   -8.5980   -4.1780  -22.7160 H   0  0  0  0  0  0  0  0  0  0  0  0
  -10.2820   -5.2380  -24.7860 H   0  0  0  0  0  0  0  0  0  0  0  0
   -9.0390   -6.0970  -23.8440 H   0  0  0  0  0  0  0  0  0  0  0  0
   -8.6230   -4.8190  -26.5640 H   0  0  0  0  0  0  0  0  0  0  0  0
   -8.4650   -6.5470  -26.1550 H   0  0  0  0  0  0  0  0  0  0  0  0
  5  2  2  0
  6  3  2  0
  7  4  2  0
 10  8  2  0
 11  9  2  0
 12  8  1  0
 14  9  1  0
 16 15  1  0
 17  1  1  0
 17 10  1  0
 17 13  2  0
 18 11  1  0
 19 12  2  0
 19 13  1  0
 20 18  2  0
 21 14  2  0
 21 20  1  0
 22  4  1  0
 23 15  2  0
 24 16  2  0
 25  7  1  0
 26 22  2  0
 26 23  1  0
 27 24  1  0
 27 25  2  0
 27 26  1  0
 28  5  1  0
 28 18  1  0
 29  5  1  0
 29 25  1  0
 30 19  1  0
 30 28  1  0
 32  6  1  0
 32 31  1  0
 33 20  1  0
 34 33  1  0
 35 34  1  0
 36  6  1  0
 36 21  1  0
 36 35  1  0
  7 37  1  0
  8 38  1  0
  9 39  1  0
 10 40  1  0
 11 41  1  0
 12 42  1  0
 13 43  1  0
 14 44  1  0
 15 45  1  0
 16 46  1  0
 22 47  1  0
 23 48  1  0
 24 49  1  0
 29 50  1  0
 29 51  1  0
 30 52  1  0
 30 53  1  0
 31 54  1  0
 31 55  1  0
 31 56  1  0
 32 57  1  0
 32 58  1  0
 33 59  1  0
 33 60  1  0
 34 61  1  0
 34 62  1  0
 35 63  1  0
 35 64  1  0
M  END
>  <Favorite_cresset>
false

>  <Protein_cresset>
sars_P

>  <MW_cresset>
498.0

>  <#Atoms_cresset>
36

>  <SlogP_cresset>
6.4

>  <TPSA_cresset>
53.5

>  <Flexibility_cresset>
6.2

>  <HBA_cresset>
5

>  <HBD_cresset>
0

>  <Rof5_cresset>
1

>  <Confs_cresset>
0

>  <Poses_cresset>
0

$$$$
predicted (7)
  xed2sdf           3D
 
 37 39  0  0  0  0  0  0  0  0999 V2000
    8.1030    1.5820   21.6810 O   0  0  0  0  0  0  0  0  0  0  0  0
    6.1330   -0.1960   17.7840 N   0  0  0  0  0  0  0  0  0  0  0  0
    8.3510    0.4060   21.9030 C   0  0  0  0  0  0  0  0  0  0  0  0
    6.8680   -0.5600   18.8530 C   0  0  0  0  0  0  0  0  0  0  0  0
    2.8870    1.8550   20.7250 C   0  0  0  0  0  0  0  0  0  0  0  0
    3.6570    1.5130   21.8450 C   0  0  0  0  0  0  0  0  0  0  0  0
    5.0040    0.5010   17.9990 C   0  0  0  0  0  0  0  0  0  0  0  0
    3.3610    1.5600   19.4440 C   0  0  0  0  0  0  0  0  0  0  0  0
    4.8720    0.8320   21.6810 C   0  0  0  0  0  0  0  0  0  0  0  0
    6.5230   -0.2430   20.1820 C   0  0  0  0  0  0  0  0  0  0  0  0
    4.5490    0.8380   19.2780 C   0  0  0  0  0  0  0  0  0  0  0  0
    5.3160    0.4630   20.3970 C   0  0  0  0  0  0  0  0  0  0  0  0
    9.5060    0.0090   22.5940 N   0  0  0  0  0  0  0  0  0  0  0  0
    7.4530   -0.7070   21.3180 C   0  0  0  0  0  0  0  0  0  0  0  0
    9.5420   -1.2690   23.3650 C   0  0  0  0  0  0  0  0  0  0  0  0
   10.4450    1.0570   23.0950 C   0  0  0  0  0  0  0  0  0  0  0  0
   10.9580   -1.8540   23.4530 C   0  0  0  0  0  0  0  0  0  0  0  0
   11.8540    0.5430   23.4920 C   0  0  0  0  0  0  0  0  0  0  0  0
   11.8830   -0.8510   24.1530 C   0  0  0  0  0  0  0  0  0  0  0  0
    7.7710   -1.1290   18.6410 H   0  0  0  0  0  0  0  0  0  0  0  0
    1.9480    2.3870   20.8420 H   0  0  0  0  0  0  0  0  0  0  0  0
    3.3290    1.8020   22.8390 H   0  0  0  0  0  0  0  0  0  0  0  0
    4.4810    0.8550   17.1190 H   0  0  0  0  0  0  0  0  0  0  0  0
    2.8080    1.8980   18.5800 H   0  0  0  0  0  0  0  0  0  0  0  0
    5.4670    0.5950   22.5530 H   0  0  0  0  0  0  0  0  0  0  0  0
    8.0790   -1.5380   20.9630 H   0  0  0  0  0  0  0  0  0  0  0  0
    6.8640   -1.1100   22.1450 H   0  0  0  0  0  0  0  0  0  0  0  0
    8.8590   -2.0230   22.9510 H   0  0  0  0  0  0  0  0  0  0  0  0
    9.2080   -1.0650   24.3930 H   0  0  0  0  0  0  0  0  0  0  0  0
    9.9820    1.5500   23.9570 H   0  0  0  0  0  0  0  0  0  0  0  0
   10.5630    1.8340   22.3330 H   0  0  0  0  0  0  0  0  0  0  0  0
   10.9240   -2.7950   24.0110 H   0  0  0  0  0  0  0  0  0  0  0  0
   11.3300   -2.1090   22.4530 H   0  0  0  0  0  0  0  0  0  0  0  0
   12.3210    1.2630   24.1700 H   0  0  0  0  0  0  0  0  0  0  0  0
   12.4840    0.5280   22.5990 H   0  0  0  0  0  0  0  0  0  0  0  0
   12.9050   -1.2370   24.1390 H   0  0  0  0  0  0  0  0  0  0  0  0
   11.5770   -0.7840   25.2040 H   0  0  0  0  0  0  0  0  0  0  0  0
  3  1  2  0
  4  2  2  0
  6  5  1  0
  7  2  1  0
  8  5  2  0
  9  6  2  0
 10  4  1  0
 11  7  2  0
 11  8  1  0
 12  9  1  0
 12 10  2  0
 12 11  1  0
 13  3  1  0
 14  3  1  0
 14 10  1  0
 15 13  1  0
 16 13  1  0
 17 15  1  0
 18 16  1  0
 19 17  1  0
 19 18  1  0
  4 20  1  0
  5 21  1  0
  6 22  1  0
  7 23  1  0
  8 24  1  0
  9 25  1  0
 14 26  1  0
 14 27  1  0
 15 28  1  0
 15 29  1  0
 16 30  1  0
 16 31  1  0
 17 32  1  0
 17 33  1  0
 18 34  1  0
 18 35  1  0
 19 36  1  0
 19 37  1  0
M  END
>  <Favorite_cresset>
false

>  <Protein_cresset>
sars_P

>  <MW_cresset>
254.3

>  <#Atoms_cresset>
19

>  <SlogP_cresset>
2.8

>  <TPSA_cresset>
33.2

>  <Flexibility_cresset>
3.2

>  <HBA_cresset>
3

>  <HBD_cresset>
0

>  <Rof5_cresset>
0

>  <Confs_cresset>
0

>  <Poses_cresset>
0

$$$$
predicted (8)
  xed2sdf           3D
 
 66 71  0  0  1  0  0  0  0  0999 V2000
  -11.1720    1.7010  -23.6830 O   0  0  0  0  0  0  0  0  0  0  0  0
   -8.5480    3.2430  -25.3960 O   0  0  0  0  0  0  0  0  0  0  0  0
   -9.0670   -0.2860  -21.1220 O   0  0  0  0  0  0  0  0  0  0  0  0
   -6.0560   -1.1160  -18.0600 N   0  0  0  0  0  0  0  0  0  0  0  0
   -5.9980    7.1280  -23.1200 N   0  0  0  0  0  0  0  0  0  0  0  0
  -10.6340    0.6040  -23.7140 C   0  0  0  0  0  0  0  0  0  0  0  0
   -8.6930    2.8920  -24.2370 C   0  0  0  0  0  0  0  0  0  0  0  0
   -8.5640   -1.1950  -21.7520 C   0  0  0  0  0  0  0  0  0  0  0  0
   -5.8620    6.2590  -22.1280 C   0  0  0  0  0  0  0  0  0  0  0  0
   -6.7640   -1.5970  -19.0980 C   0  0  0  0  0  0  0  0  0  0  0  0
  -13.5780   -1.6100  -22.9130 C   0  0  0  0  0  0  0  0  0  0  0  0
  -12.9640   -2.8220  -22.5910 C   0  0  0  0  0  0  0  0  0  0  0  0
  -12.8000   -0.5300  -23.3160 C   0  0  0  0  0  0  0  0  0  0  0  0
  -11.5600   -2.9500  -22.6710 C   0  0  0  0  0  0  0  0  0  0  0  0
   -3.0970    1.2230  -21.0600 C   0  0  0  0  0  0  0  0  0  0  0  0
   -3.7950    0.7090  -22.1630 C   0  0  0  0  0  0  0  0  0  0  0  0
   -7.0260    5.4610  -22.0100 C   0  0  0  0  0  0  0  0  0  0  0  0
  -11.4000   -0.6330  -23.3530 C   0  0  0  0  0  0  0  0  0  0  0  0
  -10.7410   -1.8450  -23.0040 C   0  0  0  0  0  0  0  0  0  0  0  0
   -5.0290   -0.2810  -18.2890 C   0  0  0  0  0  0  0  0  0  0  0  0
   -3.5320    0.9300  -19.7640 C   0  0  0  0  0  0  0  0  0  0  0  0
   -4.9350   -0.0930  -21.9780 C   0  0  0  0  0  0  0  0  0  0  0  0
   -6.4700   -1.2700  -20.4270 C   0  0  0  0  0  0  0  0  0  0  0  0
   -7.8890    5.8660  -22.9790 C   0  0  0  0  0  0  0  0  0  0  0  0
   -4.6330    0.0820  -19.5790 C   0  0  0  0  0  0  0  0  0  0  0  0
   -5.3530   -0.4320  -20.6810 C   0  0  0  0  0  0  0  0  0  0  0  0
   -9.1030    3.7540  -23.2360 N   0  0  0  0  0  0  0  0  0  0  0  0
   -7.3350   -1.7340  -21.4520 N   0  0  0  0  0  0  0  0  0  0  0  0
   -9.2840    0.4210  -24.0080 N   0  0  0  0  0  0  0  0  0  0  0  0
   -7.2490    6.8930  -23.6390 N   0  0  0  0  0  0  0  0  0  0  0  0
   -8.2960    1.4940  -23.7110 C   0  0  0  0  0  0  0  0  0  0  0  0
   -9.2080    5.2200  -23.3030 C   0  0  0  0  0  0  0  0  0  0  0  0
   -7.7280    7.6080  -24.8250 C   0  0  0  0  0  0  0  0  0  0  0  0
   -8.0610   -3.9770  -24.2960 C   0  0  0  0  0  0  0  0  0  0  0  0
   -7.0780   -2.9450  -22.2110 C   0  0  0  0  0  0  0  0  0  0  0  0
   -8.7240   -0.9490  -24.1630 C   0  0  0  0  0  0  0  0  0  0  0  0
   -8.3970   -3.2530  -22.9630 C   0  0  0  0  0  0  0  0  0  0  0  0
   -9.1690   -1.8640  -23.0000 C   0  0  0  0  0  0  0  0  0  0  0  0
   -4.9300    6.2220  -21.5800 H   0  0  0  0  0  0  0  0  0  0  0  0
   -7.5870   -2.2720  -18.8540 H   0  0  0  0  0  0  0  0  0  0  0  0
  -14.6570   -1.5170  -22.8930 H   0  0  0  0  0  0  0  0  0  0  0  0
  -13.5930   -3.6600  -22.3010 H   0  0  0  0  0  0  0  0  0  0  0  0
  -13.2830    0.4140  -23.5520 H   0  0  0  0  0  0  0  0  0  0  0  0
  -11.1210   -3.9100  -22.4640 H   0  0  0  0  0  0  0  0  0  0  0  0
   -2.2290    1.8570  -21.2090 H   0  0  0  0  0  0  0  0  0  0  0  0
   -3.4560    0.9400  -23.1670 H   0  0  0  0  0  0  0  0  0  0  0  0
   -7.1760    4.6420  -21.3160 H   0  0  0  0  0  0  0  0  0  0  0  0
   -4.4950    0.0690  -17.4060 H   0  0  0  0  0  0  0  0  0  0  0  0
   -3.0180    1.3530  -18.9030 H   0  0  0  0  0  0  0  0  0  0  0  0
   -5.4750   -0.4640  -22.8410 H   0  0  0  0  0  0  0  0  0  0  0  0
   -9.2180    3.3530  -22.3150 H   0  0  0  0  0  0  0  0  0  0  0  0
   -7.3110    1.2450  -24.1280 H   0  0  0  0  0  0  0  0  0  0  0  0
   -8.1890    1.5730  -22.6190 H   0  0  0  0  0  0  0  0  0  0  0  0
   -9.9470    5.5400  -22.5520 H   0  0  0  0  0  0  0  0  0  0  0  0
   -9.5590    5.5330  -24.2940 H   0  0  0  0  0  0  0  0  0  0  0  0
   -8.8240    7.6690  -24.8010 H   0  0  0  0  0  0  0  0  0  0  0  0
   -7.4150    7.0550  -25.7190 H   0  0  0  0  0  0  0  0  0  0  0  0
   -7.3090    8.6210  -24.8500 H   0  0  0  0  0  0  0  0  0  0  0  0
   -6.9880   -3.9390  -24.5180 H   0  0  0  0  0  0  0  0  0  0  0  0
   -8.5830   -3.5690  -25.1640 H   0  0  0  0  0  0  0  0  0  0  0  0
   -8.3100   -5.0390  -24.2060 H   0  0  0  0  0  0  0  0  0  0  0  0
   -6.2590   -2.7350  -22.9070 H   0  0  0  0  0  0  0  0  0  0  0  0
   -6.7850   -3.7810  -21.5650 H   0  0  0  0  0  0  0  0  0  0  0  0
   -7.6290   -0.9030  -24.1970 H   0  0  0  0  0  0  0  0  0  0  0  0
   -9.0820   -1.3620  -25.1100 H   0  0  0  0  0  0  0  0  0  0  0  0
   -8.9560   -3.9450  -22.3220 H   0  0  0  0  0  0  0  0  0  0  0  0
  6  1  2  0
  7  2  2  0
  8  3  2  0
  9  5  2  0
 10  4  2  0
 12 11  2  0
 13 11  1  0
 14 12  1  0
 16 15  1  0
 17  9  1  0
 18  6  1  0
 18 13  2  0
 19 14  2  0
 19 18  1  0
 20  4  1  0
 21 15  2  0
 22 16  2  0
 23 10  1  0
 24 17  2  0
 25 20  2  0
 25 21  1  0
 26 22  1  0
 26 23  2  0
 26 25  1  0
 27  7  1  0
 28  8  1  0
 28 23  1  0
 29  6  1  0
 30  5  1  0
 30 24  1  0
 31  7  1  0
 31 29  1  0
 32 24  1  0
 32 27  1  0
 33 30  1  0
 35 28  1  0
 36 29  1  0
 37 34  1  0
 37 35  1  0
 38  8  1  0
 38 19  1  0
 38 36  1  0
 38 37  1  0
  9 39  1  0
 10 40  1  0
 11 41  1  0
 12 42  1  0
 13 43  1  0
 14 44  1  0
 15 45  1  0
 16 46  1  0
 17 47  1  0
 20 48  1  0
 21 49  1  0
 22 50  1  0
 27 51  1  0
 31 52  1  0
 31 53  1  0
 32 54  1  0
 32 55  1  0
 33 56  1  0
 33 57  1  0
 33 58  1  0
 34 59  1  0
 34 60  1  0
 34 61  1  0
 35 62  1  0
 35 63  1  0
 36 64  1  0
 36 65  1  0
 37 66  1  0
M  END
>  <Favorite_cresset>
false

>  <Protein_cresset>
sars_P

>  <MW_cresset>
508.6

>  <#Atoms_cresset>
38

>  <SlogP_cresset>
2.7

>  <TPSA_cresset>
100.4

>  <Flexibility_cresset>
4.9

>  <HBA_cresset>
9

>  <HBD_cresset>
1

>  <Rof5_cresset>
1

>  <Confs_cresset>
0

>  <Poses_cresset>
0

$$$$
predicted (9)
  xed2sdf           3D
 
 58 63  0  0  1  0  0  0  0  0999 V2000
   10.2970    3.1330   23.6760 O   0  0  0  0  0  0  0  0  0  0  0  0
    8.4300    1.2780   21.4530 O   0  0  0  0  0  0  0  0  0  0  0  0
    5.2200    4.1950   22.4960 N   0  0  0  0  0  0  0  0  0  0  0  0
    6.1190    0.0300   17.6510 N   0  0  0  0  0  0  0  0  0  0  0  0
    5.7070    3.0670   23.2590 O   0  0  0  0  0  0  0  0  0  0  0  0
    9.9490    1.9650   23.7760 C   0  0  0  0  0  0  0  0  0  0  0  0
    8.1820    0.1370   21.7670 C   0  0  0  0  0  0  0  0  0  0  0  0
    6.8020   -0.4270   18.7240 C   0  0  0  0  0  0  0  0  0  0  0  0
    6.2400    5.0540   22.4300 C   0  0  0  0  0  0  0  0  0  0  0  0
    6.9950    3.3680   23.5800 C   0  0  0  0  0  0  0  0  0  0  0  0
    7.3840    4.5760   23.1110 C   0  0  0  0  0  0  0  0  0  0  0  0
   13.1470   -0.0680   23.4260 C   0  0  0  0  0  0  0  0  0  0  0  0
   12.2680    1.0100   23.5580 C   0  0  0  0  0  0  0  0  0  0  0  0
   11.2490   -1.5410   23.0100 C   0  0  0  0  0  0  0  0  0  0  0  0
    2.7070    1.7500   20.6290 C   0  0  0  0  0  0  0  0  0  0  0  0
    3.4290    1.2920   21.7400 C   0  0  0  0  0  0  0  0  0  0  0  0
   12.6340   -1.3380   23.1540 C   0  0  0  0  0  0  0  0  0  0  0  0
   10.8760    0.8260   23.4140 C   0  0  0  0  0  0  0  0  0  0  0  0
   10.3430   -0.4490   23.0860 C   0  0  0  0  0  0  0  0  0  0  0  0
    4.9790    0.7120   17.8670 C   0  0  0  0  0  0  0  0  0  0  0  0
    3.2080    1.5470   19.3360 C   0  0  0  0  0  0  0  0  0  0  0  0
    4.6500    0.6360   21.5530 C   0  0  0  0  0  0  0  0  0  0  0  0
    6.4020   -0.2040   20.0490 C   0  0  0  0  0  0  0  0  0  0  0  0
    4.4380    0.8960   19.1480 C   0  0  0  0  0  0  0  0  0  0  0  0
    5.1670    0.4370   20.2640 C   0  0  0  0  0  0  0  0  0  0  0  0
    7.2310   -0.6310   21.1240 N   0  0  0  0  0  0  0  0  0  0  0  0
    8.6780    1.5980   24.2450 N   0  0  0  0  0  0  0  0  0  0  0  0
    6.2010    6.4780   21.9540 C   0  0  0  0  0  0  0  0  0  0  0  0
    7.7170    2.6390   24.6930 C   0  0  0  0  0  0  0  0  0  0  0  0
    7.9360   -2.9810   23.8930 C   0  0  0  0  0  0  0  0  0  0  0  0
    7.0140   -1.9000   21.7760 C   0  0  0  0  0  0  0  0  0  0  0  0
    8.1790    0.1810   24.2000 C   0  0  0  0  0  0  0  0  0  0  0  0
    8.2350   -2.0530   22.7030 C   0  0  0  0  0  0  0  0  0  0  0  0
    8.7870   -0.5910   22.9850 C   0  0  0  0  0  0  0  0  0  0  0  0
   13.4820   -2.3850   23.1080 F   0  0  0  0  0  0  0  0  0  0  0  0
    7.7210   -0.9670   18.5160 H   0  0  0  0  0  0  0  0  0  0  0  0
    8.2980    5.1250   23.3160 H   0  0  0  0  0  0  0  0  0  0  0  0
   14.2120    0.0770   23.5830 H   0  0  0  0  0  0  0  0  0  0  0  0
   12.6680    1.9780   23.8450 H   0  0  0  0  0  0  0  0  0  0  0  0
   10.9040   -2.5630   22.9040 H   0  0  0  0  0  0  0  0  0  0  0  0
    1.7700    2.2750   20.7790 H   0  0  0  0  0  0  0  0  0  0  0  0
    3.0610    1.4650   22.7490 H   0  0  0  0  0  0  0  0  0  0  0  0
    4.5080    1.1570   16.9950 H   0  0  0  0  0  0  0  0  0  0  0  0
    2.6350    1.9050   18.4920 H   0  0  0  0  0  0  0  0  0  0  0  0
    5.2020    0.2990   22.4200 H   0  0  0  0  0  0  0  0  0  0  0  0
    5.1730    6.8540   21.9250 H   0  0  0  0  0  0  0  0  0  0  0  0
    6.6400    6.5880   20.9580 H   0  0  0  0  0  0  0  0  0  0  0  0
    6.7640    7.1220   22.6400 H   0  0  0  0  0  0  0  0  0  0  0  0
    6.9810    2.1950   25.3740 H   0  0  0  0  0  0  0  0  0  0  0  0
    8.2670    3.3940   25.2690 H   0  0  0  0  0  0  0  0  0  0  0  0
    6.8900   -2.8850   24.2170 H   0  0  0  0  0  0  0  0  0  0  0  0
    8.6050   -2.7780   24.7380 H   0  0  0  0  0  0  0  0  0  0  0  0
    8.0880   -4.0220   23.5710 H   0  0  0  0  0  0  0  0  0  0  0  0
    6.0700   -1.8600   22.3430 H   0  0  0  0  0  0  0  0  0  0  0  0
    6.9690   -2.7030   21.0300 H   0  0  0  0  0  0  0  0  0  0  0  0
    7.0870    0.1950   24.0860 H   0  0  0  0  0  0  0  0  0  0  0  0
    8.4180   -0.3170   25.1510 H   0  0  0  0  0  0  0  0  0  0  0  0
    8.9740   -2.5640   22.0760 H   0  0  0  0  0  0  0  0  0  0  0  0
  5  3  1  0
  6  1  2  0
  7  2  2  0
  8  4  2  0
  9  3  2  0
 10  5  1  0
 11  9  1  0
 11 10  2  0
 13 12  1  0
 16 15  1  0
 17 12  2  0
 17 14  1  0
 18  6  1  0
 18 13  2  0
 19 14  2  0
 19 18  1  0
 20  4  1  0
 21 15  2  0
 22 16  2  0
 23  8  1  0
 24 20  2  0
 24 21  1  0
 25 22  1  0
 25 23  2  0
 25 24  1  0
 26  7  1  0
 26 23  1  0
 27  6  1  0
 28  9  1  0
 29 10  1  0
 29 27  1  0
 31 26  1  0
 32 27  1  0
 33 30  1  0
 33 31  1  0
 34  7  1  0
 34 19  1  0
 34 32  1  0
 34 33  1  0
 35 17  1  0
  8 36  1  0
 11 37  1  0
 12 38  1  0
 13 39  1  0
 14 40  1  0
 15 41  1  0
 16 42  1  0
 20 43  1  0
 21 44  1  0
 22 45  1  0
 28 46  1  0
 28 47  1  0
 28 48  1  0
 29 49  1  0
 29 50  1  0
 30 51  1  0
 30 52  1  0
 30 53  1  0
 31 54  1  0
 31 55  1  0
 32 56  1  0
 32 57  1  0
 33 58  1  0
M  END
>  <Favorite_cresset>
false

>  <Protein_cresset>
sars_P

>  <MW_cresset>
470.5

>  <#Atoms_cresset>
35

>  <SlogP_cresset>
3.9

>  <TPSA_cresset>
79.5

>  <Flexibility_cresset>
2.9

>  <HBA_cresset>
7

>  <HBD_cresset>
0

>  <Rof5_cresset>
0

>  <Confs_cresset>
0

>  <Poses_cresset>
0

$$$$
predicted (10)
  xed2sdf           3D
 
 71 76  0  0  1  0  0  0  0  0999 V2000
   13.7380   -2.3060   23.7440 Cl  0  0  0  0  0  0  0  0  0  0  0  0
    9.9040    3.3610   23.9280 O   0  0  0  0  0  0  0  0  0  0  0  0
    8.6280    1.0960   21.5300 O   0  0  0  0  0  0  0  0  0  0  0  0
    6.0170   -0.4040   18.0360 N   0  0  0  0  0  0  0  0  0  0  0  0
    5.4300    7.4390   23.4580 O   0  0  0  0  0  0  0  0  0  0  0  0
    9.6110    2.1750   24.0010 C   0  0  0  0  0  0  0  0  0  0  0  0
    8.2370    0.0600   22.0330 C   0  0  0  0  0  0  0  0  0  0  0  0
    6.7680   -0.7460   19.0990 C   0  0  0  0  0  0  0  0  0  0  0  0
   12.9870    0.3240   23.7960 C   0  0  0  0  0  0  0  0  0  0  0  0
   12.0380    1.3580   23.8370 C   0  0  0  0  0  0  0  0  0  0  0  0
   11.2110   -1.3000   23.5610 C   0  0  0  0  0  0  0  0  0  0  0  0
    2.9120    1.8540   21.0090 C   0  0  0  0  0  0  0  0  0  0  0  0
    3.6890    1.4890   22.1200 C   0  0  0  0  0  0  0  0  0  0  0  0
   12.5690   -1.0040   23.7160 C   0  0  0  0  0  0  0  0  0  0  0  0
   10.6510    1.0710   23.7600 C   0  0  0  0  0  0  0  0  0  0  0  0
   10.2390   -0.2700   23.5390 C   0  0  0  0  0  0  0  0  0  0  0  0
    4.9070    0.3190   18.2610 C   0  0  0  0  0  0  0  0  0  0  0  0
    3.3240    1.4740   19.7210 C   0  0  0  0  0  0  0  0  0  0  0  0
    4.8720    0.7510   21.9460 C   0  0  0  0  0  0  0  0  0  0  0  0
    6.4460   -0.3680   20.4100 C   0  0  0  0  0  0  0  0  0  0  0  0
    4.4910    0.7170   19.5440 C   0  0  0  0  0  0  0  0  0  0  0  0
    5.2760    0.3650   20.6530 C   0  0  0  0  0  0  0  0  0  0  0  0
    7.2840   -0.7380   21.4660 N   0  0  0  0  0  0  0  0  0  0  0  0
    8.3190    1.7500   24.3660 N   0  0  0  0  0  0  0  0  0  0  0  0
    7.3150    2.7210   24.8960 C   0  0  0  0  0  0  0  0  0  0  0  0
    3.6470    7.1250   21.8780 C   0  0  0  0  0  0  0  0  0  0  0  0
    7.2960    8.2310   24.7940 C   0  0  0  0  0  0  0  0  0  0  0  0
    7.9760   -2.8630   24.3900 C   0  0  0  0  0  0  0  0  0  0  0  0
    7.1540   -2.0230   22.1040 C   0  0  0  0  0  0  0  0  0  0  0  0
    8.0240    0.2830   24.5080 C   0  0  0  0  0  0  0  0  0  0  0  0
    6.2330    3.2450   23.8880 C   0  0  0  0  0  0  0  0  0  0  0  0
    5.0190    5.1090   22.8180 C   0  0  0  0  0  0  0  0  0  0  0  0
    6.7720    5.6910   24.4910 C   0  0  0  0  0  0  0  0  0  0  0  0
    5.0170    6.6080   22.3580 C   0  0  0  0  0  0  0  0  0  0  0  0
    6.7710    7.1140   23.8670 C   0  0  0  0  0  0  0  0  0  0  0  0
    8.2980   -2.0410   23.1320 C   0  0  0  0  0  0  0  0  0  0  0  0
    8.7300   -0.5280   23.3560 C   0  0  0  0  0  0  0  0  0  0  0  0
    6.2920    4.6910   23.4910 N   0  0  0  0  0  0  0  0  0  0  0  0
    7.6400   -1.3600   18.8880 H   0  0  0  0  0  0  0  0  0  0  0  0
   14.0460    0.5480   23.8580 H   0  0  0  0  0  0  0  0  0  0  0  0
   12.3940    2.3760   23.9720 H   0  0  0  0  0  0  0  0  0  0  0  0
   10.9370   -2.3430   23.4940 H   0  0  0  0  0  0  0  0  0  0  0  0
    2.0110    2.4500   21.1450 H   0  0  0  0  0  0  0  0  0  0  0  0
    3.3890    1.8000   23.1150 H   0  0  0  0  0  0  0  0  0  0  0  0
    4.3350    0.5970   17.3840 H   0  0  0  0  0  0  0  0  0  0  0  0
    2.7390    1.7740   18.8610 H   0  0  0  0  0  0  0  0  0  0  0  0
    5.4750    0.5030   22.8170 H   0  0  0  0  0  0  0  0  0  0  0  0
    7.8510    3.5450   25.3720 H   0  0  0  0  0  0  0  0  0  0  0  0
    6.7710    2.2230   25.7040 H   0  0  0  0  0  0  0  0  0  0  0  0
    2.8480    6.9080   22.5920 H   0  0  0  0  0  0  0  0  0  0  0  0
    3.3740    6.6880   20.9130 H   0  0  0  0  0  0  0  0  0  0  0  0
    3.6820    8.2140   21.7560 H   0  0  0  0  0  0  0  0  0  0  0  0
    8.3310    8.0290   25.0950 H   0  0  0  0  0  0  0  0  0  0  0  0
    6.6830    8.3450   25.6950 H   0  0  0  0  0  0  0  0  0  0  0  0
    7.2820    9.1930   24.2680 H   0  0  0  0  0  0  0  0  0  0  0  0
    7.0820   -2.4820   24.8960 H   0  0  0  0  0  0  0  0  0  0  0  0
    8.8190   -2.8210   25.0920 H   0  0  0  0  0  0  0  0  0  0  0  0
    7.8030   -3.9180   24.1230 H   0  0  0  0  0  0  0  0  0  0  0  0
    6.1680   -2.1020   22.5730 H   0  0  0  0  0  0  0  0  0  0  0  0
    7.2760   -2.8190   21.3580 H   0  0  0  0  0  0  0  0  0  0  0  0
    6.9410    0.1000   24.5250 H   0  0  0  0  0  0  0  0  0  0  0  0
    8.4290   -0.0380   25.4790 H   0  0  0  0  0  0  0  0  0  0  0  0
    5.2540    3.0460   24.3470 H   0  0  0  0  0  0  0  0  0  0  0  0
    6.2840    2.6410   22.9770 H   0  0  0  0  0  0  0  0  0  0  0  0
    4.1720    4.9440   23.4980 H   0  0  0  0  0  0  0  0  0  0  0  0
    4.8550    4.4830   21.9340 H   0  0  0  0  0  0  0  0  0  0  0  0
    7.8080    5.4750   24.7800 H   0  0  0  0  0  0  0  0  0  0  0  0
    6.1460    5.6670   25.3920 H   0  0  0  0  0  0  0  0  0  0  0  0
    5.7180    6.7390   21.5260 H   0  0  0  0  0  0  0  0  0  0  0  0
    7.4210    7.0770   22.9870 H   0  0  0  0  0  0  0  0  0  0  0  0
    9.0960   -2.5670   22.5970 H   0  0  0  0  0  0  0  0  0  0  0  0
  6  2  2  0
  7  3  2  0
  8  4  2  0
 10  9  1  0
 13 12  1  0
 14  1  1  0
 14  9  2  0
 14 11  1  0
 15  6  1  0
 15 10  2  0
 16 11  2  0
 16 15  1  0
 17  4  1  0
 18 12  2  0
 19 13  2  0
 20  8  1  0
 21 17  2  0
 21 18  1  0
 22 19  1  0
 22 20  2  0
 22 21  1  0
 23  7  1  0
 23 20  1  0
 24  6  1  0
 25 24  1  0
 29 23  1  0
 30 24  1  0
 31 25  1  0
 34  5  1  0
 34 26  1  0
 34 32  1  0
 35  5  1  0
 35 27  1  0
 35 33  1  0
 36 28  1  0
 36 29  1  0
 37  7  1  0
 37 16  1  0
 37 30  1  0
 37 36  1  0
 38 31  1  0
 38 32  1  0
 38 33  1  0
  8 39  1  0
  9 40  1  0
 10 41  1  0
 11 42  1  0
 12 43  1  0
 13 44  1  0
 17 45  1  0
 18 46  1  0
 19 47  1  0
 25 48  1  0
 25 49  1  0
 26 50  1  0
 26 51  1  0
 26 52  1  0
 27 53  1  0
 27 54  1  0
 27 55  1  0
 28 56  1  0
 28 57  1  0
 28 58  1  0
 29 59  1  0
 29 60  1  0
 30 61  1  0
 30 62  1  0
 31 63  1  0
 31 64  1  0
 32 65  1  0
 32 66  1  0
 33 67  1  0
 33 68  1  0
 34 69  1  0
 35 70  1  0
 36 71  1  0
M  END
>  <Favorite_cresset>
false

>  <Protein_cresset>
sars_P

>  <MW_cresset>
533.1

>  <#Atoms_cresset>
38

>  <SlogP_cresset>
4.4

>  <TPSA_cresset>
66.0

>  <Flexibility_cresset>
4.8

>  <HBA_cresset>
7

>  <HBD_cresset>
0

>  <Rof5_cresset>
1

>  <Confs_cresset>
0

>  <Poses_cresset>
0

$$$$
predicted (11)
  xed2sdf           3D
 
 54 57  0  0  1  0  0  0  0  0999 V2000
    8.2650    1.1940   21.4840 O   0  0  0  0  0  0  0  0  0  0  0  0
    6.1390   -0.1420   17.7770 N   0  0  0  0  0  0  0  0  0  0  0  0
    6.9790    0.8790   24.6860 O   0  0  0  0  0  0  0  0  0  0  0  0
    8.3110    0.0340   21.8550 C   0  0  0  0  0  0  0  0  0  0  0  0
    6.8430   -0.5970   18.8280 C   0  0  0  0  0  0  0  0  0  0  0  0
    7.7620    4.4510   24.0510 C   0  0  0  0  0  0  0  0  0  0  0  0
    9.1220    4.3690   23.7230 C   0  0  0  0  0  0  0  0  0  0  0  0
    7.0400    3.2830   24.3290 C   0  0  0  0  0  0  0  0  0  0  0  0
    9.7630    3.1170   23.6830 C   0  0  0  0  0  0  0  0  0  0  0  0
    2.8100    1.6290   20.8200 C   0  0  0  0  0  0  0  0  0  0  0  0
    3.4720    1.0330   21.9040 C   0  0  0  0  0  0  0  0  0  0  0  0
    7.6920    2.0290   24.3710 C   0  0  0  0  0  0  0  0  0  0  0  0
    9.0660    1.9310   24.0280 C   0  0  0  0  0  0  0  0  0  0  0  0
    5.0030    0.5340   18.0240 C   0  0  0  0  0  0  0  0  0  0  0  0
    3.3240    1.4780   19.5240 C   0  0  0  0  0  0  0  0  0  0  0  0
    4.6850    0.3530   21.7090 C   0  0  0  0  0  0  0  0  0  0  0  0
    6.4460   -0.4370   20.1590 C   0  0  0  0  0  0  0  0  0  0  0  0
    4.5080    0.7500   19.3200 C   0  0  0  0  0  0  0  0  0  0  0  0
    5.2210    0.2220   20.4160 C   0  0  0  0  0  0  0  0  0  0  0  0
    9.1190   -0.3940   22.9240 N   0  0  0  0  0  0  0  0  0  0  0  0
    5.6260    0.8980   25.2050 C   0  0  0  0  0  0  0  0  0  0  0  0
    7.3710   -1.0110   21.2260 C   0  0  0  0  0  0  0  0  0  0  0  0
    9.5580   -1.7990   23.1260 C   0  0  0  0  0  0  0  0  0  0  0  0
   13.3810   -0.9230   23.5300 C   0  0  0  0  0  0  0  0  0  0  0  0
   11.1020   -1.9680   23.1590 C   0  0  0  0  0  0  0  0  0  0  0  0
   11.2670    0.5260   23.6790 C   0  0  0  0  0  0  0  0  0  0  0  0
   11.8820   -0.8730   23.9320 C   0  0  0  0  0  0  0  0  0  0  0  0
    9.7400    0.5290   23.9220 C   0  0  0  0  0  0  0  0  0  0  0  0
    7.7690   -1.1230   18.6050 H   0  0  0  0  0  0  0  0  0  0  0  0
    7.2600    5.4130   24.0500 H   0  0  0  0  0  0  0  0  0  0  0  0
    9.6650    5.2670   23.4420 H   0  0  0  0  0  0  0  0  0  0  0  0
    5.9740    3.3640   24.5190 H   0  0  0  0  0  0  0  0  0  0  0  0
   10.7930    3.0770   23.3520 H   0  0  0  0  0  0  0  0  0  0  0  0
    1.9010    2.2000   20.9880 H   0  0  0  0  0  0  0  0  0  0  0  0
    3.0490    1.1080   22.9000 H   0  0  0  0  0  0  0  0  0  0  0  0
    4.4870    0.9260   17.1560 H   0  0  0  0  0  0  0  0  0  0  0  0
    2.8000    1.9200   18.6840 H   0  0  0  0  0  0  0  0  0  0  0  0
    5.1890   -0.0860   22.5630 H   0  0  0  0  0  0  0  0  0  0  0  0
    4.9310    1.3240   24.4690 H   0  0  0  0  0  0  0  0  0  0  0  0
    5.5710    1.4980   26.1240 H   0  0  0  0  0  0  0  0  0  0  0  0
    5.2900   -0.1220   25.4400 H   0  0  0  0  0  0  0  0  0  0  0  0
    7.9960   -1.7660   20.7470 H   0  0  0  0  0  0  0  0  0  0  0  0
    6.8170   -1.5440   22.0020 H   0  0  0  0  0  0  0  0  0  0  0  0
    9.1830   -2.4370   22.3200 H   0  0  0  0  0  0  0  0  0  0  0  0
    9.1330   -2.1610   24.0680 H   0  0  0  0  0  0  0  0  0  0  0  0
   13.9340   -0.0490   23.8960 H   0  0  0  0  0  0  0  0  0  0  0  0
   13.4760   -0.9360   22.4390 H   0  0  0  0  0  0  0  0  0  0  0  0
   13.8670   -1.8320   23.9100 H   0  0  0  0  0  0  0  0  0  0  0  0
   11.3490   -2.9570   23.5610 H   0  0  0  0  0  0  0  0  0  0  0  0
   11.4570   -1.9680   22.1270 H   0  0  0  0  0  0  0  0  0  0  0  0
   11.7580    1.2380   24.3390 H   0  0  0  0  0  0  0  0  0  0  0  0
   11.4800    0.8500   22.6580 H   0  0  0  0  0  0  0  0  0  0  0  0
   11.8110   -1.0760   25.0080 H   0  0  0  0  0  0  0  0  0  0  0  0
    9.6250    0.0710   24.9140 H   0  0  0  0  0  0  0  0  0  0  0  0
  4  1  2  0
  5  2  2  0
  7  6  2  0
  8  6  1  0
  9  7  1  0
 11 10  1  0
 12  3  1  0
 12  8  2  0
 13  9  2  0
 13 12  1  0
 14  2  1  0
 15 10  2  0
 16 11  2  0
 17  5  1  0
 18 14  2  0
 18 15  1  0
 19 16  1  0
 19 17  2  0
 19 18  1  0
 20  4  1  0
 21  3  1  0
 22  4  1  0
 22 17  1  0
 23 20  1  0
 25 23  1  0
 27 24  1  0
 27 25  1  0
 27 26  1  0
 28 13  1  0
 28 20  1  0
 28 26  1  0
  5 29  1  0
  6 30  1  0
  7 31  1  0
  8 32  1  0
  9 33  1  0
 10 34  1  0
 11 35  1  0
 14 36  1  0
 15 37  1  0
 16 38  1  0
 21 39  1  0
 21 40  1  0
 21 41  1  0
 22 42  1  0
 22 43  1  0
 23 44  1  0
 23 45  1  0
 24 46  1  0
 24 47  1  0
 24 48  1  0
 25 49  1  0
 25 50  1  0
 26 51  1  0
 26 52  1  0
 27 53  1  0
 28 54  1  0
M  END
>  <Favorite_cresset>
false

>  <Protein_cresset>
sars_P

>  <MW_cresset>
374.5

>  <#Atoms_cresset>
28

>  <SlogP_cresset>
4.8

>  <TPSA_cresset>
42.4

>  <Flexibility_cresset>
3.9

>  <HBA_cresset>
4

>  <HBD_cresset>
0

>  <Rof5_cresset>
0

>  <Confs_cresset>
0

>  <Poses_cresset>
0

$$$$
predicted (12)
  xed2sdf           3D
 
 47 50  0  0  1  0  0  0  0  0999 V2000
    7.6140    0.9260   22.0480 O   0  0  0  0  0  0  0  0  0  0  0  0
    6.0090   -0.1640   17.8470 N   0  0  0  0  0  0  0  0  0  0  0  0
    7.7520   -0.2870   22.1030 C   0  0  0  0  0  0  0  0  0  0  0  0
    6.6040   -0.7260   18.9110 C   0  0  0  0  0  0  0  0  0  0  0  0
    2.6170    1.7100   20.7620 C   0  0  0  0  0  0  0  0  0  0  0  0
    3.2390    1.1520   21.8840 C   0  0  0  0  0  0  0  0  0  0  0  0
    4.8940    0.5540   18.0600 C   0  0  0  0  0  0  0  0  0  0  0  0
    3.1550    1.4940   19.4900 C   0  0  0  0  0  0  0  0  0  0  0  0
    4.4170    0.3970   21.7340 C   0  0  0  0  0  0  0  0  0  0  0  0
    6.1240   -0.5840   20.2210 C   0  0  0  0  0  0  0  0  0  0  0  0
    4.3250    0.7400   19.3320 C   0  0  0  0  0  0  0  0  0  0  0  0
    4.9580    0.1780   20.4500 C   0  0  0  0  0  0  0  0  0  0  0  0
    8.7080   -0.8780   22.8940 N   0  0  0  0  0  0  0  0  0  0  0  0
    6.9040   -1.2710   21.3120 C   0  0  0  0  0  0  0  0  0  0  0  0
    9.6250   -0.1020   23.7120 C   0  0  0  0  0  0  0  0  0  0  0  0
   13.0840   -1.5680   23.9440 C   0  0  0  0  0  0  0  0  0  0  0  0
   12.8410   -0.9680   25.3230 C   0  0  0  0  0  0  0  0  0  0  0  0
   11.8100   -1.2550   23.1720 C   0  0  0  0  0  0  0  0  0  0  0  0
   11.3450   -0.7200   25.5120 C   0  0  0  0  0  0  0  0  0  0  0  0
    8.8740   -2.4490   25.5550 C   0  0  0  0  0  0  0  0  0  0  0  0
    9.0000   -2.3240   23.0330 C   0  0  0  0  0  0  0  0  0  0  0  0
   10.6560   -1.1270   24.2110 C   0  0  0  0  0  0  0  0  0  0  0  0
    9.8290   -2.4280   24.3180 C   0  0  0  0  0  0  0  0  0  0  0  0
    8.1440   -3.5850   25.5910 F   0  0  0  0  0  0  0  0  0  0  0  0
    7.5000   -1.3130   18.7160 H   0  0  0  0  0  0  0  0  0  0  0  0
    1.7260    2.3250   20.8750 H   0  0  0  0  0  0  0  0  0  0  0  0
    2.8230    1.3140   22.8700 H   0  0  0  0  0  0  0  0  0  0  0  0
    4.4630    1.0160   17.1810 H   0  0  0  0  0  0  0  0  0  0  0  0
    2.6710    1.9070   18.6210 H   0  0  0  0  0  0  0  0  0  0  0  0
    4.9010    0.0100   22.6220 H   0  0  0  0  0  0  0  0  0  0  0  0
    7.5820   -2.0080   20.8620 H   0  0  0  0  0  0  0  0  0  0  0  0
    6.2570   -1.8310   21.9950 H   0  0  0  0  0  0  0  0  0  0  0  0
    9.0750    0.3440   24.5460 H   0  0  0  0  0  0  0  0  0  0  0  0
   10.0790    0.7110   23.1390 H   0  0  0  0  0  0  0  0  0  0  0  0
   13.2230   -2.6510   24.0160 H   0  0  0  0  0  0  0  0  0  0  0  0
   13.9640   -1.1130   23.4580 H   0  0  0  0  0  0  0  0  0  0  0  0
   13.3060    0.0160   25.3090 H   0  0  0  0  0  0  0  0  0  0  0  0
   13.2470   -1.5990   26.1320 H   0  0  0  0  0  0  0  0  0  0  0  0
   11.6310   -2.0110   22.4040 H   0  0  0  0  0  0  0  0  0  0  0  0
   11.9580   -0.2990   22.6620 H   0  0  0  0  0  0  0  0  0  0  0  0
   11.1690    0.3410   25.6580 H   0  0  0  0  0  0  0  0  0  0  0  0
   11.0070   -1.2410   26.4100 H   0  0  0  0  0  0  0  0  0  0  0  0
    8.1960   -1.5850   25.5260 H   0  0  0  0  0  0  0  0  0  0  0  0
    9.4240   -2.4120   26.4970 H   0  0  0  0  0  0  0  0  0  0  0  0
    8.0980   -2.9400   23.0790 H   0  0  0  0  0  0  0  0  0  0  0  0
    9.5940   -2.6620   22.1760 H   0  0  0  0  0  0  0  0  0  0  0  0
   10.4740   -3.3140   24.3210 H   0  0  0  0  0  0  0  0  0  0  0  0
  3  1  2  0
  4  2  2  0
  6  5  1  0
  7  2  1  0
  8  5  2  0
  9  6  2  0
 10  4  1  0
 11  7  2  0
 11  8  1  0
 12  9  1  0
 12 10  2  0
 12 11  1  0
 13  3  1  0
 14  3  1  0
 14 10  1  0
 15 13  1  0
 17 16  1  0
 18 16  1  0
 19 17  1  0
 21 13  1  0
 22 15  1  0
 22 18  1  0
 22 19  1  0
 23 20  1  0
 23 21  1  0
 23 22  1  0
 24 20  1  0
  4 25  1  0
  5 26  1  0
  6 27  1  0
  7 28  1  0
  8 29  1  0
  9 30  1  0
 14 31  1  0
 14 32  1  0
 15 33  1  0
 15 34  1  0
 16 35  1  0
 16 36  1  0
 17 37  1  0
 17 38  1  0
 18 39  1  0
 18 40  1  0
 19 41  1  0
 19 42  1  0
 20 43  1  0
 20 44  1  0
 21 45  1  0
 21 46  1  0
 23 47  1  0
M  END
>  <Favorite_cresset>
false

>  <Protein_cresset>
sars_P

>  <MW_cresset>
326.4

>  <#Atoms_cresset>
24

>  <SlogP_cresset>
3.8

>  <TPSA_cresset>
33.2

>  <Flexibility_cresset>
4.2

>  <HBA_cresset>
3

>  <HBD_cresset>
0

>  <Rof5_cresset>
0

>  <Confs_cresset>
0

>  <Poses_cresset>
0

$$$$
predicted (13)
  xed2sdf           3D
 
 67 72  0  0  1  0  0  0  0  0999 V2000
   13.8140   -1.9870   23.1260 Cl  0  0  0  0  0  0  0  0  0  0  0  0
    9.8740    3.4200   23.9430 O   0  0  0  0  0  0  0  0  0  0  0  0
    7.6700    4.8980   24.7100 O   0  0  0  0  0  0  0  0  0  0  0  0
    8.4670    1.2360   21.4760 O   0  0  0  0  0  0  0  0  0  0  0  0
    5.9920   -0.2370   17.9260 N   0  0  0  0  0  0  0  0  0  0  0  0
    6.9570   -2.3670   24.9350 O   0  0  0  0  0  0  0  0  0  0  0  0
    9.5600    2.2420   23.9990 C   0  0  0  0  0  0  0  0  0  0  0  0
    7.2030    4.1180   23.8940 C   0  0  0  0  0  0  0  0  0  0  0  0
    8.1520    0.1600   21.9340 C   0  0  0  0  0  0  0  0  0  0  0  0
    6.7250   -0.6100   18.9870 C   0  0  0  0  0  0  0  0  0  0  0  0
   12.9590    0.5740   23.5320 C   0  0  0  0  0  0  0  0  0  0  0  0
   11.9670    1.5310   23.7710 C   0  0  0  0  0  0  0  0  0  0  0  0
   11.2330   -1.1120   23.2230 C   0  0  0  0  0  0  0  0  0  0  0  0
    2.8090    1.8910   20.9010 C   0  0  0  0  0  0  0  0  0  0  0  0
    3.5090    1.4290   22.0230 C   0  0  0  0  0  0  0  0  0  0  0  0
   12.5850   -0.7530   23.2930 C   0  0  0  0  0  0  0  0  0  0  0  0
   10.6010    1.1820   23.7210 C   0  0  0  0  0  0  0  0  0  0  0  0
   10.2170   -0.1380   23.3740 C   0  0  0  0  0  0  0  0  0  0  0  0
    4.8810    0.4900   18.1510 C   0  0  0  0  0  0  0  0  0  0  0  0
    3.2680    1.6020   19.6080 C   0  0  0  0  0  0  0  0  0  0  0  0
    4.7010    0.7070   21.8500 C   0  0  0  0  0  0  0  0  0  0  0  0
    6.3640   -0.3060   20.3070 C   0  0  0  0  0  0  0  0  0  0  0  0
    4.4320    0.8400   19.4350 C   0  0  0  0  0  0  0  0  0  0  0  0
    5.1700    0.4110   20.5500 C   0  0  0  0  0  0  0  0  0  0  0  0
    6.7540    4.5300   22.6520 N   0  0  0  0  0  0  0  0  0  0  0  0
    7.2320   -0.6700   21.3490 N   0  0  0  0  0  0  0  0  0  0  0  0
    8.2530    1.7830   24.2610 N   0  0  0  0  0  0  0  0  0  0  0  0
    6.7930    5.9380   22.2380 C   0  0  0  0  0  0  0  0  0  0  0  0
    7.0070    2.6180   24.1850 C   0  0  0  0  0  0  0  0  0  0  0  0
    6.4120   -3.1760   25.9940 C   0  0  0  0  0  0  0  0  0  0  0  0
    3.9940   -2.9460   27.0740 C   0  0  0  0  0  0  0  0  0  0  0  0
    4.0660   -2.0010   25.9030 C   0  0  0  0  0  0  0  0  0  0  0  0
    5.3220   -2.3380   26.6740 C   0  0  0  0  0  0  0  0  0  0  0  0
    8.0770   -2.8850   24.1910 C   0  0  0  0  0  0  0  0  0  0  0  0
    7.0950   -1.9190   22.0550 C   0  0  0  0  0  0  0  0  0  0  0  0
    7.9990    0.3130   24.3710 C   0  0  0  0  0  0  0  0  0  0  0  0
    8.3170   -1.9590   22.9820 C   0  0  0  0  0  0  0  0  0  0  0  0
    8.7130   -0.4460   23.2210 C   0  0  0  0  0  0  0  0  0  0  0  0
    7.6470   -1.1510   18.7750 H   0  0  0  0  0  0  0  0  0  0  0  0
   14.0090    0.8480   23.5890 H   0  0  0  0  0  0  0  0  0  0  0  0
   12.2670    2.5480   24.0090 H   0  0  0  0  0  0  0  0  0  0  0  0
   11.0060   -2.1610   23.0730 H   0  0  0  0  0  0  0  0  0  0  0  0
    1.9030    2.4720   21.0320 H   0  0  0  0  0  0  0  0  0  0  0  0
    3.1290    1.6360   23.0220 H   0  0  0  0  0  0  0  0  0  0  0  0
    4.3500    0.8110   17.2660 H   0  0  0  0  0  0  0  0  0  0  0  0
    2.7310    1.9680   18.7420 H   0  0  0  0  0  0  0  0  0  0  0  0
    5.2360    0.3710   22.7310 H   0  0  0  0  0  0  0  0  0  0  0  0
    6.3790    3.8340   22.0180 H   0  0  0  0  0  0  0  0  0  0  0  0
    7.8240    6.3130   22.2880 H   0  0  0  0  0  0  0  0  0  0  0  0
    6.4130    6.0450   21.2160 H   0  0  0  0  0  0  0  0  0  0  0  0
    6.1680    6.5310   22.9160 H   0  0  0  0  0  0  0  0  0  0  0  0
    6.3700    2.2200   23.3890 H   0  0  0  0  0  0  0  0  0  0  0  0
    6.4450    2.5430   25.1210 H   0  0  0  0  0  0  0  0  0  0  0  0
    7.1920   -3.4240   26.7230 H   0  0  0  0  0  0  0  0  0  0  0  0
    5.9840   -4.1070   25.5960 H   0  0  0  0  0  0  0  0  0  0  0  0
    3.5010   -2.5690   27.9700 H   0  0  0  0  0  0  0  0  0  0  0  0
    3.8240   -3.9990   26.8650 H   0  0  0  0  0  0  0  0  0  0  0  0
    3.6160   -1.0220   26.0370 H   0  0  0  0  0  0  0  0  0  0  0  0
    3.9540   -2.4210   24.9070 H   0  0  0  0  0  0  0  0  0  0  0  0
    5.7210   -1.5550   27.3170 H   0  0  0  0  0  0  0  0  0  0  0  0
    7.8530   -3.8900   23.8070 H   0  0  0  0  0  0  0  0  0  0  0  0
    8.9840   -2.9320   24.8040 H   0  0  0  0  0  0  0  0  0  0  0  0
    6.1530   -1.9060   22.6170 H   0  0  0  0  0  0  0  0  0  0  0  0
    7.0910   -2.7600   21.3560 H   0  0  0  0  0  0  0  0  0  0  0  0
    6.9190    0.1180   24.3490 H   0  0  0  0  0  0  0  0  0  0  0  0
    8.3930   -0.0460   25.3290 H   0  0  0  0  0  0  0  0  0  0  0  0
    9.0880   -2.4150   22.3510 H   0  0  0  0  0  0  0  0  0  0  0  0
  7  2  2  0
  8  3  2  0
  9  4  2  0
 10  5  2  0
 12 11  1  0
 15 14  1  0
 16  1  1  0
 16 11  2  0
 16 13  1  0
 17  7  1  0
 17 12  2  0
 18 13  2  0
 18 17  1  0
 19  5  1  0
 20 14  2  0
 21 15  2  0
 22 10  1  0
 23 19  2  0
 23 20  1  0
 24 21  1  0
 24 22  2  0
 24 23  1  0
 25  8  1  0
 26  9  1  0
 26 22  1  0
 27  7  1  0
 28 25  1  0
 29  8  1  0
 29 27  1  0
 30  6  1  0
 32 31  1  0
 33 30  1  0
 33 31  1  0
 33 32  1  0
 34  6  1  0
 35 26  1  0
 36 27  1  0
 37 34  1  0
 37 35  1  0
 38  9  1  0
 38 18  1  0
 38 36  1  0
 38 37  1  0
 10 39  1  0
 11 40  1  0
 12 41  1  0
 13 42  1  0
 14 43  1  0
 15 44  1  0
 19 45  1  0
 20 46  1  0
 21 47  1  0
 25 48  1  0
 28 49  1  0
 28 50  1  0
 28 51  1  0
 29 52  1  0
 29 53  1  0
 30 54  1  0
 30 55  1  0
 31 56  1  0
 31 57  1  0
 32 58  1  0
 32 59  1  0
 33 60  1  0
 34 61  1  0
 34 62  1  0
 35 63  1  0
 35 64  1  0
 36 65  1  0
 36 66  1  0
 37 67  1  0
M  END
>  <Favorite_cresset>
false

>  <Protein_cresset>
sars_P

>  <MW_cresset>
533.0

>  <#Atoms_cresset>
38

>  <SlogP_cresset>
3.4

>  <TPSA_cresset>
91.8

>  <Flexibility_cresset>
6.9

>  <HBA_cresset>
8

>  <HBD_cresset>
1

>  <Rof5_cresset>
1

>  <Confs_cresset>
0

>  <Poses_cresset>
0

$$$$
predicted (14)
  xed2sdf           3D
 
 66 72  0  0  1  0  0  0  0  0999 V2000
  -14.0150   -3.1980  -21.6670 Cl  0  0  0  0  0  0  0  0  0  0  0  0
  -10.9840    2.1660  -24.2510 O   0  0  0  0  0  0  0  0  0  0  0  0
   -9.1810    0.0930  -21.2650 O   0  0  0  0  0  0  0  0  0  0  0  0
   -6.2850   -0.5690  -18.1750 N   0  0  0  0  0  0  0  0  0  0  0  0
   -7.6330    6.4960  -22.7700 O   0  0  0  0  0  0  0  0  0  0  0  0
  -10.5080    1.0520  -24.1070 C   0  0  0  0  0  0  0  0  0  0  0  0
   -8.6490   -0.7790  -21.9220 C   0  0  0  0  0  0  0  0  0  0  0  0
   -6.9660   -1.0780  -19.2200 C   0  0  0  0  0  0  0  0  0  0  0  0
  -13.5690   -0.9090  -23.0250 C   0  0  0  0  0  0  0  0  0  0  0  0
  -12.7510    0.0630  -23.5990 C   0  0  0  0  0  0  0  0  0  0  0  0
  -11.6180   -2.3070  -22.6180 C   0  0  0  0  0  0  0  0  0  0  0  0
   -3.0430    1.3450  -21.2080 C   0  0  0  0  0  0  0  0  0  0  0  0
   -3.7210    0.8050  -22.3120 C   0  0  0  0  0  0  0  0  0  0  0  0
  -12.9970   -2.0790  -22.5180 C   0  0  0  0  0  0  0  0  0  0  0  0
  -11.3590   -0.1110  -23.6520 C   0  0  0  0  0  0  0  0  0  0  0  0
  -10.7710   -1.3180  -23.1750 C   0  0  0  0  0  0  0  0  0  0  0  0
   -5.1790    0.1580  -18.4200 C   0  0  0  0  0  0  0  0  0  0  0  0
   -3.5350    1.1450  -19.9130 C   0  0  0  0  0  0  0  0  0  0  0  0
   -4.9060    0.0700  -22.1270 C   0  0  0  0  0  0  0  0  0  0  0  0
   -6.5820   -0.8880  -20.5640 C   0  0  0  0  0  0  0  0  0  0  0  0
   -4.7000    0.3900  -19.7180 C   0  0  0  0  0  0  0  0  0  0  0  0
   -5.4020   -0.1500  -20.8210 C   0  0  0  0  0  0  0  0  0  0  0  0
   -7.4370   -1.3450  -21.6070 N   0  0  0  0  0  0  0  0  0  0  0  0
   -9.1530    0.7960  -24.2500 N   0  0  0  0  0  0  0  0  0  0  0  0
   -8.1820    1.8650  -24.5150 C   0  0  0  0  0  0  0  0  0  0  0  0
   -8.4010   -3.6150  -24.4180 C   0  0  0  0  0  0  0  0  0  0  0  0
   -7.2440   -2.6090  -22.3170 C   0  0  0  0  0  0  0  0  0  0  0  0
   -7.1940    5.4970  -21.8110 C   0  0  0  0  0  0  0  0  0  0  0  0
   -5.5920    5.6800  -23.5230 C   0  0  0  0  0  0  0  0  0  0  0  0
   -8.7050   -0.5980  -24.3840 C   0  0  0  0  0  0  0  0  0  0  0  0
   -7.7110    2.6090  -23.2520 C   0  0  0  0  0  0  0  0  0  0  0  0
   -7.6560    4.8260  -24.4750 C   0  0  0  0  0  0  0  0  0  0  0  0
   -6.9770    6.1430  -24.0100 C   0  0  0  0  0  0  0  0  0  0  0  0
   -8.5780   -2.8440  -23.0840 C   0  0  0  0  0  0  0  0  0  0  0  0
   -6.2210    4.6040  -22.6450 C   0  0  0  0  0  0  0  0  0  0  0  0
   -9.2290   -1.4190  -23.1810 C   0  0  0  0  0  0  0  0  0  0  0  0
   -6.9500    3.8030  -23.6590 N   0  0  0  0  0  0  0  0  0  0  0  0
   -7.8560   -1.6530  -18.9680 H   0  0  0  0  0  0  0  0  0  0  0  0
  -14.6350   -0.7360  -22.9330 H   0  0  0  0  0  0  0  0  0  0  0  0
  -13.2090    0.9890  -23.9350 H   0  0  0  0  0  0  0  0  0  0  0  0
  -11.2290   -3.2320  -22.2030 H   0  0  0  0  0  0  0  0  0  0  0  0
   -2.1390    1.9280  -21.3610 H   0  0  0  0  0  0  0  0  0  0  0  0
   -3.3260    0.9630  -23.3110 H   0  0  0  0  0  0  0  0  0  0  0  0
   -4.6570    0.5540  -17.5480 H   0  0  0  0  0  0  0  0  0  0  0  0
   -3.0120    1.5660  -19.0590 H   0  0  0  0  0  0  0  0  0  0  0  0
   -5.4140   -0.3310  -23.0010 H   0  0  0  0  0  0  0  0  0  0  0  0
   -8.6530    2.5900  -25.1860 H   0  0  0  0  0  0  0  0  0  0  0  0
   -7.2970    1.4520  -25.0130 H   0  0  0  0  0  0  0  0  0  0  0  0
   -7.4190   -3.4280  -24.8730 H   0  0  0  0  0  0  0  0  0  0  0  0
   -9.1860   -3.3580  -25.1400 H   0  0  0  0  0  0  0  0  0  0  0  0
   -8.4800   -4.6930  -24.2380 H   0  0  0  0  0  0  0  0  0  0  0  0
   -6.3910   -2.5060  -23.0010 H   0  0  0  0  0  0  0  0  0  0  0  0
   -7.0600   -3.4150  -21.5930 H   0  0  0  0  0  0  0  0  0  0  0  0
   -8.0280    4.9220  -21.4120 H   0  0  0  0  0  0  0  0  0  0  0  0
   -6.6700    5.9920  -20.9850 H   0  0  0  0  0  0  0  0  0  0  0  0
   -5.0380    6.4430  -22.9570 H   0  0  0  0  0  0  0  0  0  0  0  0
   -4.9650    5.2750  -24.3300 H   0  0  0  0  0  0  0  0  0  0  0  0
   -7.6120   -0.6420  -24.4360 H   0  0  0  0  0  0  0  0  0  0  0  0
   -9.1130   -1.0080  -25.3180 H   0  0  0  0  0  0  0  0  0  0  0  0
   -8.5750    2.9150  -22.6550 H   0  0  0  0  0  0  0  0  0  0  0  0
   -7.0820    1.9450  -22.6430 H   0  0  0  0  0  0  0  0  0  0  0  0
   -8.7290    4.8560  -24.2380 H   0  0  0  0  0  0  0  0  0  0  0  0
   -7.5220    4.6470  -25.5510 H   0  0  0  0  0  0  0  0  0  0  0  0
   -6.9720    6.9460  -24.7580 H   0  0  0  0  0  0  0  0  0  0  0  0
   -9.1870   -3.4630  -22.4180 H   0  0  0  0  0  0  0  0  0  0  0  0
   -5.5050    4.0260  -22.0470 H   0  0  0  0  0  0  0  0  0  0  0  0
  6  2  2  0
  7  3  2  0
  8  4  2  0
 10  9  1  0
 13 12  1  0
 14  1  1  0
 14  9  2  0
 14 11  1  0
 15  6  1  0
 15 10  2  0
 16 11  2  0
 16 15  1  0
 17  4  1  0
 18 12  2  0
 19 13  2  0
 20  8  1  0
 21 17  2  0
 21 18  1  0
 22 19  1  0
 22 20  2  0
 22 21  1  0
 23  7  1  0
 23 20  1  0
 24  6  1  0
 25 24  1  0
 27 23  1  0
 28  5  1  0
 30 24  1  0
 31 25  1  0
 33  5  1  0
 33 29  1  0
 33 32  1  0
 34 26  1  0
 34 27  1  0
 35 28  1  0
 35 29  1  0
 36  7  1  0
 36 16  1  0
 36 30  1  0
 36 34  1  0
 37 31  1  0
 37 32  1  0
 37 35  1  0
  8 38  1  0
  9 39  1  0
 10 40  1  0
 11 41  1  0
 12 42  1  0
 13 43  1  0
 17 44  1  0
 18 45  1  0
 19 46  1  0
 25 47  1  0
 25 48  1  0
 26 49  1  0
 26 50  1  0
 26 51  1  0
 27 52  1  0
 27 53  1  0
 28 54  1  0
 28 55  1  0
 29 56  1  0
 29 57  1  0
 30 58  1  0
 30 59  1  0
 31 60  1  0
 31 61  1  0
 32 62  1  0
 32 63  1  0
 33 64  1  0
 34 65  1  0
 35 66  1  0
M  END
>  <Favorite_cresset>
false

>  <Protein_cresset>
sars_P

>  <MW_cresset>
517.0

>  <#Atoms_cresset>
37

>  <SlogP_cresset>
3.8

>  <TPSA_cresset>
66.0

>  <Flexibility_cresset>
4.7

>  <HBA_cresset>
7

>  <HBD_cresset>
0

>  <Rof5_cresset>
1

>  <Confs_cresset>
0

>  <Poses_cresset>
0

$$$$
predicted (15)
  xed2sdf           3D
 
 71 76  0  0  1  0  0  0  0  0999 V2000
   13.7960   -2.5030   22.9060 Cl  0  0  0  0  0  0  0  0  0  0  0  0
   10.4390    3.2990   23.8220 O   0  0  0  0  0  0  0  0  0  0  0  0
    8.6000    1.2670   21.5190 O   0  0  0  0  0  0  0  0  0  0  0  0
    6.1410   -0.2190   17.9290 N   0  0  0  0  0  0  0  0  0  0  0  0
    4.9730    7.3090   23.5380 O   0  0  0  0  0  0  0  0  0  0  0  0
   10.0490    2.1450   23.9380 C   0  0  0  0  0  0  0  0  0  0  0  0
    8.2770    0.1900   21.9620 C   0  0  0  0  0  0  0  0  0  0  0  0
    6.8570   -0.5680   19.0180 C   0  0  0  0  0  0  0  0  0  0  0  0
   13.2320    0.1120   23.4320 C   0  0  0  0  0  0  0  0  0  0  0  0
   12.3520    1.1720   23.6720 C   0  0  0  0  0  0  0  0  0  0  0  0
   11.3300   -1.3600   23.0730 C   0  0  0  0  0  0  0  0  0  0  0  0
    2.7690    1.7340   20.8200 C   0  0  0  0  0  0  0  0  0  0  0  0
    3.5020    1.3590   21.9540 C   0  0  0  0  0  0  0  0  0  0  0  0
   12.7140   -1.1550   23.1450 C   0  0  0  0  0  0  0  0  0  0  0  0
   10.9560    0.9790   23.6160 C   0  0  0  0  0  0  0  0  0  0  0  0
   10.4170   -0.2940   23.2880 C   0  0  0  0  0  0  0  0  0  0  0  0
    4.9970    0.4670   18.1160 C   0  0  0  0  0  0  0  0  0  0  0  0
    3.2700    1.4540   19.5410 C   0  0  0  0  0  0  0  0  0  0  0  0
    4.7460    0.7230   21.8150 C   0  0  0  0  0  0  0  0  0  0  0  0
    6.4660   -0.2370   20.3230 C   0  0  0  0  0  0  0  0  0  0  0  0
    4.4960    0.7890   19.3910 C   0  0  0  0  0  0  0  0  0  0  0  0
    5.2430    0.4280   20.5280 C   0  0  0  0  0  0  0  0  0  0  0  0
    7.2970   -0.5940   21.4060 N   0  0  0  0  0  0  0  0  0  0  0  0
    8.7450    1.8330   24.3430 N   0  0  0  0  0  0  0  0  0  0  0  0
    7.7970    2.9450   24.6490 C   0  0  0  0  0  0  0  0  0  0  0  0
    5.2630    7.6740   25.9020 C   0  0  0  0  0  0  0  0  0  0  0  0
    7.9300   -2.6460   24.3810 C   0  0  0  0  0  0  0  0  0  0  0  0
    7.1210   -1.8470   22.0930 C   0  0  0  0  0  0  0  0  0  0  0  0
    4.4510    4.6540   22.3760 C   0  0  0  0  0  0  0  0  0  0  0  0
    5.5860    6.9400   22.2980 C   0  0  0  0  0  0  0  0  0  0  0  0
    8.2730    0.4040   24.4130 C   0  0  0  0  0  0  0  0  0  0  0  0
    7.0790    3.5200   23.3850 C   0  0  0  0  0  0  0  0  0  0  0  0
    6.2020    5.5560   24.7190 C   0  0  0  0  0  0  0  0  0  0  0  0
    5.8850    7.0870   24.6220 C   0  0  0  0  0  0  0  0  0  0  0  0
    8.3010   -1.9180   23.0790 C   0  0  0  0  0  0  0  0  0  0  0  0
    5.8170    5.4010   22.3000 C   0  0  0  0  0  0  0  0  0  0  0  0
    8.8630   -0.4410   23.2280 C   0  0  0  0  0  0  0  0  0  0  0  0
    6.7000    4.9890   23.4300 N   0  0  0  0  0  0  0  0  0  0  0  0
    7.7740   -1.1270   18.8370 H   0  0  0  0  0  0  0  0  0  0  0  0
   14.3040    0.2740   23.4680 H   0  0  0  0  0  0  0  0  0  0  0  0
   12.7600    2.1500   23.9150 H   0  0  0  0  0  0  0  0  0  0  0  0
   10.9990   -2.3660   22.8520 H   0  0  0  0  0  0  0  0  0  0  0  0
    1.8180    2.2500   20.9310 H   0  0  0  0  0  0  0  0  0  0  0  0
    3.1170    1.5820   22.9440 H   0  0  0  0  0  0  0  0  0  0  0  0
    4.4730    0.7730   17.2150 H   0  0  0  0  0  0  0  0  0  0  0  0
    2.7030    1.7420   18.6680 H   0  0  0  0  0  0  0  0  0  0  0  0
    5.3050    0.4570   22.7080 H   0  0  0  0  0  0  0  0  0  0  0  0
    8.3550    3.7510   25.1350 H   0  0  0  0  0  0  0  0  0  0  0  0
    7.0510    2.5910   25.3680 H   0  0  0  0  0  0  0  0  0  0  0  0
    4.1980    7.4270   25.9580 H   0  0  0  0  0  0  0  0  0  0  0  0
    5.7530    7.2680   26.7960 H   0  0  0  0  0  0  0  0  0  0  0  0
    5.3620    8.7680   25.9050 H   0  0  0  0  0  0  0  0  0  0  0  0
    6.9690   -2.2860   24.7690 H   0  0  0  0  0  0  0  0  0  0  0  0
    8.7060   -2.4920   25.1410 H   0  0  0  0  0  0  0  0  0  0  0  0
    7.8390   -3.7250   24.1910 H   0  0  0  0  0  0  0  0  0  0  0  0
    6.1570   -1.8400   22.6120 H   0  0  0  0  0  0  0  0  0  0  0  0
    7.1430   -2.6780   21.3770 H   0  0  0  0  0  0  0  0  0  0  0  0
    3.6150    5.2980   22.0740 H   0  0  0  0  0  0  0  0  0  0  0  0
    4.2370    4.2850   23.3880 H   0  0  0  0  0  0  0  0  0  0  0  0
    4.4810    3.7840   21.7180 H   0  0  0  0  0  0  0  0  0  0  0  0
    6.5480    7.4570   22.2040 H   0  0  0  0  0  0  0  0  0  0  0  0
    4.9370    7.2510   21.4720 H   0  0  0  0  0  0  0  0  0  0  0  0
    7.1740    0.3730   24.3880 H   0  0  0  0  0  0  0  0  0  0  0  0
    8.6090   -0.0370   25.3630 H   0  0  0  0  0  0  0  0  0  0  0  0
    7.7490    3.3730   22.5290 H   0  0  0  0  0  0  0  0  0  0  0  0
    6.2060    2.8870   23.1950 H   0  0  0  0  0  0  0  0  0  0  0  0
    5.3100    5.0150   25.0340 H   0  0  0  0  0  0  0  0  0  0  0  0
    6.9420    5.4120   25.5050 H   0  0  0  0  0  0  0  0  0  0  0  0
    6.8180    7.6150   24.4040 H   0  0  0  0  0  0  0  0  0  0  0  0
    9.0230   -2.5360   22.5410 H   0  0  0  0  0  0  0  0  0  0  0  0
    6.3190    5.1820   21.3480 H   0  0  0  0  0  0  0  0  0  0  0  0
  6  2  2  0
  7  3  2  0
  8  4  2  0
 10  9  1  0
 13 12  1  0
 14  1  1  0
 14  9  2  0
 14 11  1  0
 15  6  1  0
 15 10  2  0
 16 11  2  0
 16 15  1  0
 17  4  1  0
 18 12  2  0
 19 13  2  0
 20  8  1  0
 21 17  2  0
 21 18  1  0
 22 19  1  0
 22 20  2  0
 22 21  1  0
 23  7  1  0
 23 20  1  0
 24  6  1  0
 25 24  1  0
 28 23  1  0
 30  5  1  0
 31 24  1  0
 32 25  1  0
 34  5  1  0
 34 26  1  0
 34 33  1  0
 35 27  1  0
 35 28  1  0
 36 29  1  0
 36 30  1  0
 37  7  1  0
 37 16  1  0
 37 31  1  0
 37 35  1  0
 38 32  1  0
 38 33  1  0
 38 36  1  0
  8 39  1  0
  9 40  1  0
 10 41  1  0
 11 42  1  0
 12 43  1  0
 13 44  1  0
 17 45  1  0
 18 46  1  0
 19 47  1  0
 25 48  1  0
 25 49  1  0
 26 50  1  0
 26 51  1  0
 26 52  1  0
 27 53  1  0
 27 54  1  0
 27 55  1  0
 28 56  1  0
 28 57  1  0
 29 58  1  0
 29 59  1  0
 29 60  1  0
 30 61  1  0
 30 62  1  0
 31 63  1  0
 31 64  1  0
 32 65  1  0
 32 66  1  0
 33 67  1  0
 33 68  1  0
 34 69  1  0
 35 70  1  0
 36 71  1  0
M  END
>  <Favorite_cresset>
false

>  <Protein_cresset>
sars_P

>  <MW_cresset>
533.1

>  <#Atoms_cresset>
38

>  <SlogP_cresset>
4.4

>  <TPSA_cresset>
66.0

>  <Flexibility_cresset>
4.8

>  <HBA_cresset>
7

>  <HBD_cresset>
0

>  <Rof5_cresset>
1

>  <Confs_cresset>
0

>  <Poses_cresset>
0

$$$$
predicted (16)
  xed2sdf           3D
 
 47 50  0  0  1  0  0  0  0  0999 V2000
    8.3180    0.7990   21.6170 O   0  0  0  0  0  0  0  0  0  0  0  0
    6.1500    0.0330   17.6070 N   0  0  0  0  0  0  0  0  0  0  0  0
    8.1650   -0.3900   21.8300 C   0  0  0  0  0  0  0  0  0  0  0  0
    6.8450   -0.5140   18.6190 C   0  0  0  0  0  0  0  0  0  0  0  0
   13.6770   -0.3460   23.8050 C   0  0  0  0  0  0  0  0  0  0  0  0
   12.9350    0.7090   23.2550 C   0  0  0  0  0  0  0  0  0  0  0  0
   13.0250   -1.3490   24.5370 C   0  0  0  0  0  0  0  0  0  0  0  0
   11.5380    0.7160   23.3690 C   0  0  0  0  0  0  0  0  0  0  0  0
   11.6310   -1.3380   24.6690 C   0  0  0  0  0  0  0  0  0  0  0  0
    2.7620    1.4930   20.7460 C   0  0  0  0  0  0  0  0  0  0  0  0
    3.4830    0.9370   21.8110 C   0  0  0  0  0  0  0  0  0  0  0  0
   10.8640   -0.3280   24.0320 C   0  0  0  0  0  0  0  0  0  0  0  0
    5.0000    0.6650   17.8960 C   0  0  0  0  0  0  0  0  0  0  0  0
    3.2720    1.4130   19.4440 C   0  0  0  0  0  0  0  0  0  0  0  0
    4.7090    0.2910   21.5740 C   0  0  0  0  0  0  0  0  0  0  0  0
    6.4220   -0.4790   19.9520 C   0  0  0  0  0  0  0  0  0  0  0  0
    4.4890    0.7600   19.1990 C   0  0  0  0  0  0  0  0  0  0  0  0
    5.2120    0.1860   20.2600 C   0  0  0  0  0  0  0  0  0  0  0  0
    8.7810   -1.0300   22.9020 N   0  0  0  0  0  0  0  0  0  0  0  0
    7.2390   -1.2570   20.9680 C   0  0  0  0  0  0  0  0  0  0  0  0
    7.2680   -3.1980   25.3480 C   0  0  0  0  0  0  0  0  0  0  0  0
    8.6630   -2.4600   23.2770 C   0  0  0  0  0  0  0  0  0  0  0  0
    8.6790   -1.0250   25.2500 C   0  0  0  0  0  0  0  0  0  0  0  0
    8.5480   -2.5090   24.8200 C   0  0  0  0  0  0  0  0  0  0  0  0
    9.3300   -0.3060   24.0520 C   0  0  0  0  0  0  0  0  0  0  0  0
    7.7790   -1.0080   18.3570 H   0  0  0  0  0  0  0  0  0  0  0  0
   14.7600   -0.3530   23.7220 H   0  0  0  0  0  0  0  0  0  0  0  0
   13.4370    1.5120   22.7240 H   0  0  0  0  0  0  0  0  0  0  0  0
   13.6070   -2.1050   25.0500 H   0  0  0  0  0  0  0  0  0  0  0  0
   10.9610    1.5380   22.9440 H   0  0  0  0  0  0  0  0  0  0  0  0
   11.1790   -2.0980   25.3050 H   0  0  0  0  0  0  0  0  0  0  0  0
    1.8120    1.9880   20.9270 H   0  0  0  0  0  0  0  0  0  0  0  0
    3.0930    1.0120   22.8220 H   0  0  0  0  0  0  0  0  0  0  0  0
    4.5100    1.1530   17.0610 H   0  0  0  0  0  0  0  0  0  0  0  0
    2.7180    1.8510   18.6270 H   0  0  0  0  0  0  0  0  0  0  0  0
    5.2600   -0.1130   22.4160 H   0  0  0  0  0  0  0  0  0  0  0  0
    7.8720   -1.9950   20.4600 H   0  0  0  0  0  0  0  0  0  0  0  0
    6.5510   -1.8130   21.6130 H   0  0  0  0  0  0  0  0  0  0  0  0
    6.3560   -2.6640   25.0520 H   0  0  0  0  0  0  0  0  0  0  0  0
    7.2970   -3.2560   26.4430 H   0  0  0  0  0  0  0  0  0  0  0  0
    7.2080   -4.2270   24.9700 H   0  0  0  0  0  0  0  0  0  0  0  0
    7.8170   -2.9660   22.8040 H   0  0  0  0  0  0  0  0  0  0  0  0
    9.5750   -2.9830   22.9600 H   0  0  0  0  0  0  0  0  0  0  0  0
    9.2490   -0.9000   26.1760 H   0  0  0  0  0  0  0  0  0  0  0  0
    7.6790   -0.5960   25.4010 H   0  0  0  0  0  0  0  0  0  0  0  0
    9.3860   -3.0970   25.2080 H   0  0  0  0  0  0  0  0  0  0  0  0
    8.9990    0.7420   24.0340 H   0  0  0  0  0  0  0  0  0  0  0  0
  3  1  2  0
  4  2  2  0
  6  5  2  0
  7  5  1  0
  8  6  1  0
  9  7  2  0
 11 10  1  0
 12  8  2  0
 12  9  1  0
 13  2  1  0
 14 10  2  0
 15 11  2  0
 16  4  1  0
 17 13  2  0
 17 14  1  0
 18 15  1  0
 18 16  2  0
 18 17  1  0
 19  3  1  0
 20  3  1  0
 20 16  1  0
 22 19  1  0
 24 21  1  0
 24 22  1  0
 24 23  1  0
 25 12  1  0
 25 19  1  0
 25 23  1  0
  4 26  1  0
  5 27  1  0
  6 28  1  0
  7 29  1  0
  8 30  1  0
  9 31  1  0
 10 32  1  0
 11 33  1  0
 13 34  1  0
 14 35  1  0
 15 36  1  0
 20 37  1  0
 20 38  1  0
 21 39  1  0
 21 40  1  0
 21 41  1  0
 22 42  1  0
 22 43  1  0
 23 44  1  0
 23 45  1  0
 24 46  1  0
 25 47  1  0
M  END
>  <Favorite_cresset>
false

>  <Protein_cresset>
sars_P

>  <MW_cresset>
330.4

>  <#Atoms_cresset>
25

>  <SlogP_cresset>
4.4

>  <TPSA_cresset>
33.2

>  <Flexibility_cresset>
2.8

>  <HBA_cresset>
3

>  <HBD_cresset>
0

>  <Rof5_cresset>
0

>  <Confs_cresset>
0

>  <Poses_cresset>
0

$$$$
predicted (17)
  xed2sdf           3D
 
 58 63  0  0  1  0  0  0  0  0999 V2000
   10.1810    3.2650   23.7370 O   0  0  0  0  0  0  0  0  0  0  0  0
    8.3280    1.3240   21.4390 O   0  0  0  0  0  0  0  0  0  0  0  0
    6.1400    0.0150   17.7060 N   0  0  0  0  0  0  0  0  0  0  0  0
    4.1950    3.0870   23.6970 N   0  0  0  0  0  0  0  0  0  0  0  0
    5.1640    2.5760   24.5300 N   0  0  0  0  0  0  0  0  0  0  0  0
    9.8120    2.1050   23.7960 C   0  0  0  0  0  0  0  0  0  0  0  0
    8.1080    0.1900   21.8010 C   0  0  0  0  0  0  0  0  0  0  0  0
    6.8100   -0.4340   18.7870 C   0  0  0  0  0  0  0  0  0  0  0  0
   13.0530    0.1710   23.4410 C   0  0  0  0  0  0  0  0  0  0  0  0
   12.1330    1.2110   23.5820 C   0  0  0  0  0  0  0  0  0  0  0  0
   11.2050   -1.3710   23.0690 C   0  0  0  0  0  0  0  0  0  0  0  0
    2.5550    1.5080   20.6050 C   0  0  0  0  0  0  0  0  0  0  0  0
    3.2030    0.9530   21.7120 C   0  0  0  0  0  0  0  0  0  0  0  0
   12.5830   -1.1220   23.2020 C   0  0  0  0  0  0  0  0  0  0  0  0
   10.7500    0.9820   23.4480 C   0  0  0  0  0  0  0  0  0  0  0  0
   10.2620   -0.3060   23.1320 C   0  0  0  0  0  0  0  0  0  0  0  0
    4.9890    0.6850   17.9100 C   0  0  0  0  0  0  0  0  0  0  0  0
    3.1580    1.4590   19.3450 C   0  0  0  0  0  0  0  0  0  0  0  0
    4.4870    0.4050   21.5720 C   0  0  0  0  0  0  0  0  0  0  0  0
    6.3600   -0.2560   20.1000 C   0  0  0  0  0  0  0  0  0  0  0  0
    4.7970    3.8080   22.7710 C   0  0  0  0  0  0  0  0  0  0  0  0
    6.3330    3.0070   24.0930 C   0  0  0  0  0  0  0  0  0  0  0  0
    4.4120    0.8460   19.1830 C   0  0  0  0  0  0  0  0  0  0  0  0
    5.0960    0.3400   20.3030 C   0  0  0  0  0  0  0  0  0  0  0  0
    7.2030   -0.6370   21.1760 N   0  0  0  0  0  0  0  0  0  0  0  0
    8.5350    1.7270   24.2410 N   0  0  0  0  0  0  0  0  0  0  0  0
    6.1460    3.8700   23.0270 N   0  0  0  0  0  0  0  0  0  0  0  0
    7.6340    2.7490   24.8410 C   0  0  0  0  0  0  0  0  0  0  0  0
    7.1010    4.7780   22.3820 C   0  0  0  0  0  0  0  0  0  0  0  0
    7.8920   -2.8340   24.0530 C   0  0  0  0  0  0  0  0  0  0  0  0
    7.0350   -1.9010   21.8590 C   0  0  0  0  0  0  0  0  0  0  0  0
    8.0880    0.2920   24.2290 C   0  0  0  0  0  0  0  0  0  0  0  0
    8.2280   -1.9800   22.8160 C   0  0  0  0  0  0  0  0  0  0  0  0
    8.7200   -0.4920   23.0390 C   0  0  0  0  0  0  0  0  0  0  0  0
   13.4630   -2.1440   23.1180 F   0  0  0  0  0  0  0  0  0  0  0  0
    7.7500   -0.9460   18.6010 H   0  0  0  0  0  0  0  0  0  0  0  0
   14.1180    0.3670   23.5460 H   0  0  0  0  0  0  0  0  0  0  0  0
   12.4960    2.1970   23.8470 H   0  0  0  0  0  0  0  0  0  0  0  0
   10.9040   -2.4080   22.9670 H   0  0  0  0  0  0  0  0  0  0  0  0
    1.5680    1.9450   20.7080 H   0  0  0  0  0  0  0  0  0  0  0  0
    2.7130    0.9480   22.6830 H   0  0  0  0  0  0  0  0  0  0  0  0
    4.5300    1.1130   17.0260 H   0  0  0  0  0  0  0  0  0  0  0  0
    2.6270    1.8590   18.4970 H   0  0  0  0  0  0  0  0  0  0  0  0
    4.9790    0.0000   22.4470 H   0  0  0  0  0  0  0  0  0  0  0  0
    4.3270    4.3250   21.9410 H   0  0  0  0  0  0  0  0  0  0  0  0
    8.1750    3.6990   24.9410 H   0  0  0  0  0  0  0  0  0  0  0  0
    7.3980    2.4270   25.8610 H   0  0  0  0  0  0  0  0  0  0  0  0
    8.1130    4.3820   22.4970 H   0  0  0  0  0  0  0  0  0  0  0  0
    6.8680    4.8870   21.3130 H   0  0  0  0  0  0  0  0  0  0  0  0
    7.0460    5.7600   22.8710 H   0  0  0  0  0  0  0  0  0  0  0  0
    6.8480   -2.6890   24.3660 H   0  0  0  0  0  0  0  0  0  0  0  0
    8.5540   -2.6220   24.9020 H   0  0  0  0  0  0  0  0  0  0  0  0
    8.0140   -3.8900   23.7740 H   0  0  0  0  0  0  0  0  0  0  0  0
    6.0870   -1.9110   22.4130 H   0  0  0  0  0  0  0  0  0  0  0  0
    7.0470   -2.7300   21.1460 H   0  0  0  0  0  0  0  0  0  0  0  0
    6.9950    0.2470   24.1590 H   0  0  0  0  0  0  0  0  0  0  0  0
    8.3770   -0.1770   25.1740 H   0  0  0  0  0  0  0  0  0  0  0  0
    8.9900   -2.5070   22.2310 H   0  0  0  0  0  0  0  0  0  0  0  0
  5  4  1  0
  6  1  2  0
  7  2  2  0
  8  3  2  0
 10  9  1  0
 13 12  1  0
 14  9  2  0
 14 11  1  0
 15  6  1  0
 15 10  2  0
 16 11  2  0
 16 15  1  0
 17  3  1  0
 18 12  2  0
 19 13  2  0
 20  8  1  0
 21  4  2  0
 22  5  2  0
 23 17  2  0
 23 18  1  0
 24 19  1  0
 24 20  2  0
 24 23  1  0
 25  7  1  0
 25 20  1  0
 26  6  1  0
 27 21  1  0
 27 22  1  0
 28 22  1  0
 28 26  1  0
 29 27  1  0
 31 25  1  0
 32 26  1  0
 33 30  1  0
 33 31  1  0
 34  7  1  0
 34 16  1  0
 34 32  1  0
 34 33  1  0
 35 14  1  0
  8 36  1  0
  9 37  1  0
 10 38  1  0
 11 39  1  0
 12 40  1  0
 13 41  1  0
 17 42  1  0
 18 43  1  0
 19 44  1  0
 21 45  1  0
 28 46  1  0
 28 47  1  0
 29 48  1  0
 29 49  1  0
 29 50  1  0
 30 51  1  0
 30 52  1  0
 30 53  1  0
 31 54  1  0
 31 55  1  0
 32 56  1  0
 32 57  1  0
 33 58  1  0
M  END
>  <Favorite_cresset>
false

>  <Protein_cresset>
sars_P

>  <MW_cresset>
470.5

>  <#Atoms_cresset>
35

>  <SlogP_cresset>
3.4

>  <TPSA_cresset>
84.2

>  <Flexibility_cresset>
2.9

>  <HBA_cresset>
8

>  <HBD_cresset>
0

>  <Rof5_cresset>
0

>  <Confs_cresset>
0

>  <Poses_cresset>
0

$$$$
predicted (18)
  xed2sdf           3D
 
 50 53  0  0  0  0  0  0  0  0999 V2000
    7.1540    0.9690   21.6260 O   0  0  0  0  0  0  0  0  0  0  0  0
    5.8960   -0.2600   17.7370 N   0  0  0  0  0  0  0  0  0  0  0  0
    7.2690   -0.1850   22.0150 C   0  0  0  0  0  0  0  0  0  0  0  0
    6.4160   -0.9130   18.7870 C   0  0  0  0  0  0  0  0  0  0  0  0
    2.5800    1.6870   20.7050 C   0  0  0  0  0  0  0  0  0  0  0  0
    3.0570    0.9210   21.7760 C   0  0  0  0  0  0  0  0  0  0  0  0
    4.8040    0.4930   17.9570 C   0  0  0  0  0  0  0  0  0  0  0  0
    3.1040    1.4860   19.4200 C   0  0  0  0  0  0  0  0  0  0  0  0
    4.1150    0.0190   21.5730 C   0  0  0  0  0  0  0  0  0  0  0  0
    5.8740   -0.8630   20.0780 C   0  0  0  0  0  0  0  0  0  0  0  0
    4.1820    0.6090   19.2130 C   0  0  0  0  0  0  0  0  0  0  0  0
    4.7070   -0.1060   20.3010 C   0  0  0  0  0  0  0  0  0  0  0  0
    7.9340   -0.4800   23.1830 N   0  0  0  0  0  0  0  0  0  0  0  0
    6.7100   -1.3870   21.2240 C   0  0  0  0  0  0  0  0  0  0  0  0
    8.5990    0.5580   23.9940 C   0  0  0  0  0  0  0  0  0  0  0  0
   14.1300   -2.5170   24.4370 C   0  0  0  0  0  0  0  0  0  0  0  0
   11.7860   -2.5500   25.4600 C   0  0  0  0  0  0  0  0  0  0  0  0
   12.2790   -1.1120   23.4170 C   0  0  0  0  0  0  0  0  0  0  0  0
    8.4350   -1.8070   23.5680 C   0  0  0  0  0  0  0  0  0  0  0  0
    9.5610   -0.1970   24.9180 C   0  0  0  0  0  0  0  0  0  0  0  0
   10.2820   -2.6390   25.1190 C   0  0  0  0  0  0  0  0  0  0  0  0
   10.8180   -1.2580   22.9570 C   0  0  0  0  0  0  0  0  0  0  0  0
   12.6400   -2.4020   24.1760 C   0  0  0  0  0  0  0  0  0  0  0  0
    9.8200   -1.5140   24.1550 C   0  0  0  0  0  0  0  0  0  0  0  0
    7.3460   -1.4440   18.6090 H   0  0  0  0  0  0  0  0  0  0  0  0
    1.8130    2.4420   20.8800 H   0  0  0  0  0  0  0  0  0  0  0  0
    2.6270    1.0350   22.7650 H   0  0  0  0  0  0  0  0  0  0  0  0
    4.4690    1.0810   17.1110 H   0  0  0  0  0  0  0  0  0  0  0  0
    2.7090    2.0470   18.5890 H   0  0  0  0  0  0  0  0  0  0  0  0
    4.4890   -0.5420   22.4230 H   0  0  0  0  0  0  0  0  0  0  0  0
    7.5570   -1.9800   20.8530 H   0  0  0  0  0  0  0  0  0  0  0  0
    6.1240   -2.0460   21.8780 H   0  0  0  0  0  0  0  0  0  0  0  0
    7.8490    1.1210   24.5640 H   0  0  0  0  0  0  0  0  0  0  0  0
    9.1750    1.2330   23.3390 H   0  0  0  0  0  0  0  0  0  0  0  0
   14.6600   -1.7920   23.8030 H   0  0  0  0  0  0  0  0  0  0  0  0
   14.3690   -2.3440   25.4950 H   0  0  0  0  0  0  0  0  0  0  0  0
   14.4380   -3.5340   24.1590 H   0  0  0  0  0  0  0  0  0  0  0  0
   11.9590   -1.6970   26.1310 H   0  0  0  0  0  0  0  0  0  0  0  0
   12.0700   -3.4630   25.9950 H   0  0  0  0  0  0  0  0  0  0  0  0
   12.9190   -1.0070   22.5270 H   0  0  0  0  0  0  0  0  0  0  0  0
   12.4170   -0.2070   24.0350 H   0  0  0  0  0  0  0  0  0  0  0  0
    7.7670   -2.2130   24.3420 H   0  0  0  0  0  0  0  0  0  0  0  0
    8.5160   -2.5060   22.7180 H   0  0  0  0  0  0  0  0  0  0  0  0
   10.4850    0.3640   25.0970 H   0  0  0  0  0  0  0  0  0  0  0  0
    9.0670   -0.3980   25.8800 H   0  0  0  0  0  0  0  0  0  0  0  0
    9.6880   -2.5980   26.0440 H   0  0  0  0  0  0  0  0  0  0  0  0
   10.0720   -3.6120   24.6600 H   0  0  0  0  0  0  0  0  0  0  0  0
   10.5340   -0.3690   22.3760 H   0  0  0  0  0  0  0  0  0  0  0  0
   10.7720   -2.1020   22.2520 H   0  0  0  0  0  0  0  0  0  0  0  0
   12.3800   -3.2260   23.5000 H   0  0  0  0  0  0  0  0  0  0  0  0
  3  1  2  0
  4  2  2  0
  6  5  1  0
  7  2  1  0
  8  5  2  0
  9  6  2  0
 10  4  1  0
 11  7  2  0
 11  8  1  0
 12  9  1  0
 12 10  2  0
 12 11  1  0
 13  3  1  0
 14  3  1  0
 14 10  1  0
 15 13  1  0
 19 13  1  0
 20 15  1  0
 21 17  1  0
 22 18  1  0
 23 16  1  0
 23 17  1  0
 23 18  1  0
 24 19  1  0
 24 20  1  0
 24 21  1  0
 24 22  1  0
  4 25  1  0
  5 26  1  0
  6 27  1  0
  7 28  1  0
  8 29  1  0
  9 30  1  0
 14 31  1  0
 14 32  1  0
 15 33  1  0
 15 34  1  0
 16 35  1  0
 16 36  1  0
 16 37  1  0
 17 38  1  0
 17 39  1  0
 18 40  1  0
 18 41  1  0
 19 42  1  0
 19 43  1  0
 20 44  1  0
 20 45  1  0
 21 46  1  0
 21 47  1  0
 22 48  1  0
 22 49  1  0
 23 50  1  0
M  END
>  <Favorite_cresset>
false

>  <Protein_cresset>
sars_P

>  <MW_cresset>
322.4

>  <#Atoms_cresset>
24

>  <SlogP_cresset>
4.2

>  <TPSA_cresset>
33.2

>  <Flexibility_cresset>
3.7

>  <HBA_cresset>
3

>  <HBD_cresset>
0

>  <Rof5_cresset>
0

>  <Confs_cresset>
0

>  <Poses_cresset>
0

$$$$
predicted (19)
  xed2sdf           3D
 
 66 70  0  0  1  0  0  0  0  0999 V2000
   13.4920   -0.6430   23.6560 Cl  0  0  0  0  0  0  0  0  0  0  0  0
    4.9570   -2.5740   27.4600 O   0  0  0  0  0  0  0  0  0  0  0  0
    8.7900    0.0340   21.6930 O   0  0  0  0  0  0  0  0  0  0  0  0
    6.2750   -0.0230   17.6740 N   0  0  0  0  0  0  0  0  0  0  0  0
    5.3690   -2.2680   26.3500 C   0  0  0  0  0  0  0  0  0  0  0  0
    8.2070   -1.0330   21.7750 C   0  0  0  0  0  0  0  0  0  0  0  0
    6.9510   -0.6060   18.6840 C   0  0  0  0  0  0  0  0  0  0  0  0
   11.9960   -2.1730   25.3420 C   0  0  0  0  0  0  0  0  0  0  0  0
    1.0710    1.2000   24.6350 C   0  0  0  0  0  0  0  0  0  0  0  0
    2.6500    3.0320   24.4420 C   0  0  0  0  0  0  0  0  0  0  0  0
    1.9340    0.5510   25.5320 C   0  0  0  0  0  0  0  0  0  0  0  0
    3.5040    2.3880   25.3540 C   0  0  0  0  0  0  0  0  0  0  0  0
   10.7950   -2.7430   25.7940 C   0  0  0  0  0  0  0  0  0  0  0  0
   10.8760   -1.4270   23.3180 C   0  0  0  0  0  0  0  0  0  0  0  0
    2.7970    1.2320   20.7880 C   0  0  0  0  0  0  0  0  0  0  0  0
    3.4930    0.6050   21.8340 C   0  0  0  0  0  0  0  0  0  0  0  0
   12.0270   -1.4840   24.1250 C   0  0  0  0  0  0  0  0  0  0  0  0
    1.4030    2.4670   24.1040 C   0  0  0  0  0  0  0  0  0  0  0  0
    3.1350    1.1580   25.9300 C   0  0  0  0  0  0  0  0  0  0  0  0
    9.6180   -2.6390   25.0230 C   0  0  0  0  0  0  0  0  0  0  0  0
    9.6660   -2.0080   23.7550 C   0  0  0  0  0  0  0  0  0  0  0  0
    5.1290    0.6250   17.9630 C   0  0  0  0  0  0  0  0  0  0  0  0
    3.3660    1.3050   19.5100 C   0  0  0  0  0  0  0  0  0  0  0  0
    4.7630    0.0630   21.6030 C   0  0  0  0  0  0  0  0  0  0  0  0
    6.5110   -0.5800   20.0020 C   0  0  0  0  0  0  0  0  0  0  0  0
    4.6000    0.6860   19.2600 C   0  0  0  0  0  0  0  0  0  0  0  0
    5.3010    0.0670   20.3080 C   0  0  0  0  0  0  0  0  0  0  0  0
    7.1620   -1.3800   20.9450 N   0  0  0  0  0  0  0  0  0  0  0  0
    5.4530   -0.9500   25.9310 N   0  0  0  0  0  0  0  0  0  0  0  0
    0.4130    3.2570   23.2220 C   0  0  0  0  0  0  0  0  0  0  0  0
    3.9120    0.5910   27.1200 C   0  0  0  0  0  0  0  0  0  0  0  0
    5.3670    0.1940   26.8320 C   0  0  0  0  0  0  0  0  0  0  0  0
    5.8070   -3.3420   25.3280 C   0  0  0  0  0  0  0  0  0  0  0  0
    8.3050   -3.1750   25.6200 C   0  0  0  0  0  0  0  0  0  0  0  0
    7.1420   -2.1060   23.6830 C   0  0  0  0  0  0  0  0  0  0  0  0
    8.4290   -2.1030   22.8560 C   0  0  0  0  0  0  0  0  0  0  0  0
    7.1420   -3.1410   24.7070 N   0  0  0  0  0  0  0  0  0  0  0  0
   -0.0540    4.3600   23.8540 F   0  0  0  0  0  0  0  0  0  0  0  0
   -0.6760    2.5330   22.8750 F   0  0  0  0  0  0  0  0  0  0  0  0
    7.8510   -1.1710   18.4350 H   0  0  0  0  0  0  0  0  0  0  0  0
   12.9020   -2.2480   25.9410 H   0  0  0  0  0  0  0  0  0  0  0  0
    0.1320    0.7220   24.3780 H   0  0  0  0  0  0  0  0  0  0  0  0
    2.9420    3.9930   24.0270 H   0  0  0  0  0  0  0  0  0  0  0  0
    1.6500   -0.4090   25.9540 H   0  0  0  0  0  0  0  0  0  0  0  0
    4.4310    2.8700   25.6510 H   0  0  0  0  0  0  0  0  0  0  0  0
   10.7690   -3.2310   26.7650 H   0  0  0  0  0  0  0  0  0  0  0  0
   10.9170   -0.9220   22.3630 H   0  0  0  0  0  0  0  0  0  0  0  0
    1.8140    1.6610   20.9640 H   0  0  0  0  0  0  0  0  0  0  0  0
    3.0530    0.5190   22.8210 H   0  0  0  0  0  0  0  0  0  0  0  0
    4.6450    1.1250   17.1300 H   0  0  0  0  0  0  0  0  0  0  0  0
    2.8330    1.7910   18.7020 H   0  0  0  0  0  0  0  0  0  0  0  0
    5.2970   -0.3890   22.4300 H   0  0  0  0  0  0  0  0  0  0  0  0
    6.6860   -2.2500   21.1570 H   0  0  0  0  0  0  0  0  0  0  0  0
    5.7320   -0.7740   24.9730 H   0  0  0  0  0  0  0  0  0  0  0  0
    0.9090    3.5840   22.3000 H   0  0  0  0  0  0  0  0  0  0  0  0
    3.3950   -0.2780   27.5470 H   0  0  0  0  0  0  0  0  0  0  0  0
    3.9410    1.3540   27.9050 H   0  0  0  0  0  0  0  0  0  0  0  0
    5.8610   -0.0740   27.7800 H   0  0  0  0  0  0  0  0  0  0  0  0
    5.9110    1.0340   26.3850 H   0  0  0  0  0  0  0  0  0  0  0  0
    5.0420   -3.3580   24.5390 H   0  0  0  0  0  0  0  0  0  0  0  0
    5.7970   -4.3110   25.8390 H   0  0  0  0  0  0  0  0  0  0  0  0
    8.4630   -4.2150   25.9330 H   0  0  0  0  0  0  0  0  0  0  0  0
    8.0880   -2.5860   26.5200 H   0  0  0  0  0  0  0  0  0  0  0  0
    6.2900   -2.2980   23.0220 H   0  0  0  0  0  0  0  0  0  0  0  0
    7.0130   -1.1070   24.1110 H   0  0  0  0  0  0  0  0  0  0  0  0
    8.4740   -3.0800   22.3520 H   0  0  0  0  0  0  0  0  0  0  0  0
  5  2  2  0
  6  3  2  0
  7  4  2  0
 11  9  2  0
 12 10  1  0
 13  8  2  0
 16 15  1  0
 17  1  1  0
 17  8  1  0
 17 14  2  0
 18  9  1  0
 18 10  2  0
 19 11  1  0
 19 12  2  0
 20 13  1  0
 21 14  1  0
 21 20  2  0
 22  4  1  0
 23 15  2  0
 24 16  2  0
 25  7  1  0
 26 22  2  0
 26 23  1  0
 27 24  1  0
 27 25  2  0
 27 26  1  0
 28  6  1  0
 28 25  1  0
 29  5  1  0
 30 18  1  0
 31 19  1  0
 32 29  1  0
 32 31  1  0
 33  5  1  0
 34 20  1  0
 36  6  1  0
 36 21  1  0
 36 35  1  0
 37 33  1  0
 37 34  1  0
 37 35  1  0
 38 30  1  0
 39 30  1  0
  7 40  1  0
  8 41  1  0
  9 42  1  0
 10 43  1  0
 11 44  1  0
 12 45  1  0
 13 46  1  0
 14 47  1  0
 15 48  1  0
 16 49  1  0
 22 50  1  0
 23 51  1  0
 24 52  1  0
 28 53  1  0
 29 54  1  0
 30 55  1  0
 31 56  1  0
 31 57  1  0
 32 58  1  0
 32 59  1  0
 33 60  1  0
 33 61  1  0
 34 62  1  0
 34 63  1  0
 35 64  1  0
 35 65  1  0
 36 66  1  0
M  END
>  <Favorite_cresset>
false

>  <Protein_cresset>
sars_P

>  <MW_cresset>
549.0

>  <#Atoms_cresset>
39

>  <SlogP_cresset>
5.7

>  <TPSA_cresset>
74.3

>  <Flexibility_cresset>
7.7

>  <HBA_cresset>
6

>  <HBD_cresset>
2

>  <Rof5_cresset>
2

>  <Confs_cresset>
0

>  <Poses_cresset>
0

$$$$
predicted (20)
  xed2sdf           3D
 
 66 70  0  0  0  0  0  0  0  0999 V2000
   13.9140   -0.6930   25.2651 Cl  0  0  0  0  0  0  0  0  0  0  0  0
    8.4750    1.1100   20.8290 O   0  0  0  0  0  0  0  0  0  0  0  0
    5.6260   -5.5790   19.8090 O   0  0  0  0  0  0  0  0  0  0  0  0
    6.1180    0.2210   17.4081 N   0  0  0  0  0  0  0  0  0  0  0  0
    8.0150    0.1259   21.3739 C   0  0  0  0  0  0  0  0  0  0  0  0
    6.4280   -4.9219   20.3901 C   0  0  0  0  0  0  0  0  0  0  0  0
    6.6400   -0.1910   18.5540 C   0  0  0  0  0  0  0  0  0  0  0  0
   12.5750   -1.1010   21.5490 C   0  0  0  0  0  0  0  0  0  0  0  0
   13.4090   -1.0860   22.6219 C   0  0  0  0  0  0  0  0  0  0  0  0
    8.9480   -2.3490   23.9630 C   0  0  0  0  0  0  0  0  0  0  0  0
   11.2760   -0.7120   21.6839 C   0  0  0  0  0  0  0  0  0  0  0  0
   11.6510   -0.1921   23.9470 C   0  0  0  0  0  0  0  0  0  0  0  0
    7.5439   -2.7240   22.1250 C   0  0  0  0  0  0  0  0  0  0  0  0
    8.7800   -3.6480   24.3980 C   0  0  0  0  0  0  0  0  0  0  0  0
    2.6680    2.4360   19.8090 C   0  0  0  0  0  0  0  0  0  0  0  0
    3.1919    2.0131   21.0080 C   0  0  0  0  0  0  0  0  0  0  0  0
   12.9340   -0.6530   23.8130 C   0  0  0  0  0  0  0  0  0  0  0  0
    8.3330   -1.8620   22.8460 C   0  0  0  0  0  0  0  0  0  0  0  0
   10.8270   -0.2020   22.8800 C   0  0  0  0  0  0  0  0  0  0  0  0
    7.3200   -4.0230   22.5231 C   0  0  0  0  0  0  0  0  0  0  0  0
    7.9640   -4.4920   23.7170 C   0  0  0  0  0  0  0  0  0  0  0  0
    5.0430    0.9280   17.4160 C   0  0  0  0  0  0  0  0  0  0  0  0
    3.2679    2.0879   18.6170 C   0  0  0  0  0  0  0  0  0  0  0  0
    4.3319    1.2620   21.0600 C   0  0  0  0  0  0  0  0  0  0  0  0
    6.1071    0.1280   19.8060 C   0  0  0  0  0  0  0  0  0  0  0  0
    4.4049    1.3180   18.6200 C   0  0  0  0  0  0  0  0  0  0  0  0
    4.9481    0.8960   19.8460 C   0  0  0  0  0  0  0  0  0  0  0  0
    8.5820   -0.5210   22.4091 N   0  0  0  0  0  0  0  0  0  0  0  0
    9.4890    0.2260   23.0620 N   0  0  0  0  0  0  0  0  0  0  0  0
    6.5020   -4.9080   21.7679 N   0  0  0  0  0  0  0  0  0  0  0  0
    6.7130   -0.3960   21.0210 C   0  0  0  0  0  0  0  0  0  0  0  0
    9.0590    1.2981   23.8640 C   0  0  0  0  0  0  0  0  0  0  0  0
    6.8599   -3.4810   18.3629 C   0  0  0  0  0  0  0  0  0  0  0  0
    7.4181   -4.1090   19.6290 C   0  0  0  0  0  0  0  0  0  0  0  0
    7.7170   -5.8369   24.2270 C   0  0  0  0  0  0  0  0  0  0  0  0
    5.8230   -5.9190   22.5230 C   0  0  0  0  0  0  0  0  0  0  0  0
    6.9650   -6.7250   23.2940 C   0  0  0  0  0  0  0  0  0  0  0  0
    7.5262   -0.8073   18.5188 H   0  0  0  0  0  0  0  0  0  0  0  0
   12.9431   -1.4224   20.5859 H   0  0  0  0  0  0  0  0  0  0  0  0
   14.4335   -1.4141   22.5258 H   0  0  0  0  0  0  0  0  0  0  0  0
    9.5917   -1.6918   24.5288 H   0  0  0  0  0  0  0  0  0  0  0  0
   10.5970   -0.8044   20.8493 H   0  0  0  0  0  0  0  0  0  0  0  0
   11.3021    0.1767   24.9003 H   0  0  0  0  0  0  0  0  0  0  0  0
    7.0831   -2.3708   21.2143 H   0  0  0  0  0  0  0  0  0  0  0  0
    9.2980   -3.9930   25.2807 H   0  0  0  0  0  0  0  0  0  0  0  0
    1.7775    3.0469   19.8008 H   0  0  0  0  0  0  0  0  0  0  0  0
    2.6920    2.2800   21.9273 H   0  0  0  0  0  0  0  0  0  0  0  0
    4.6125    1.2342   16.4741 H   0  0  0  0  0  0  0  0  0  0  0  0
    2.8437    2.4210   17.6813 H   0  0  0  0  0  0  0  0  0  0  0  0
    4.7506    0.9564   22.0075 H   0  0  0  0  0  0  0  0  0  0  0  0
    6.8097   -1.4653   20.9039 H   0  0  0  0  0  0  0  0  0  0  0  0
    6.0419   -0.1828   21.8399 H   0  0  0  0  0  0  0  0  0  0  0  0
    7.9794    1.3232   23.8828 H   0  0  0  0  0  0  0  0  0  0  0  0
    9.4336    1.1690   24.8687 H   0  0  0  0  0  0  0  0  0  0  0  0
    9.4335    2.2254   23.4564 H   0  0  0  0  0  0  0  0  0  0  0  0
    5.7807   -3.4983   18.3981 H   0  0  0  0  0  0  0  0  0  0  0  0
    7.2012   -4.0390   17.5036 H   0  0  0  0  0  0  0  0  0  0  0  0
    7.2013   -2.4591   18.2875 H   0  0  0  0  0  0  0  0  0  0  0  0
   15.6750   -9.9500   23.5660 H   0  0  0  0  0  0  0  0  0  0  0  0
    7.7737   -3.3177   20.2721 H   0  0  0  0  0  0  0  0  0  0  0  0
    8.6707   -6.2985   24.4365 H   0  0  0  0  0  0  0  0  0  0  0  0
    7.1497   -5.7516   25.1420 H   0  0  0  0  0  0  0  0  0  0  0  0
    5.1400   -5.4676   23.2274 H   0  0  0  0  0  0  0  0  0  0  0  0
    5.2770   -6.5778   21.8639 H   0  0  0  0  0  0  0  0  0  0  0  0
    6.5107   -7.5255   23.8591 H   0  0  0  0  0  0  0  0  0  0  0  0
    7.6524   -7.1395   22.5715 H   0  0  0  0  0  0  0  0  0  0  0  0
  5  2  2  0
  6  3  2  0
  7  4  2  0
  9  8  2  0
 11  8  1  0
 14 10  2  0
 16 15  1  0
 17  1  1  0
 17  9  1  0
 17 12  2  0
 18 10  1  0
 18 13  2  0
 19 11  2  0
 19 12  1  0
 20 13  1  0
 21 14  1  0
 21 20  2  0
 22  4  1  0
 23 15  2  0
 24 16  2  0
 25  7  1  0
 26 22  2  0
 26 23  1  0
 27 24  1  0
 27 25  2  0
 27 26  1  0
 28  5  1  0
 28 18  1  0
 29 19  1  0
 29 28  1  0
 30  6  1  0
 30 20  1  0
 31  5  1  0
 31 25  1  0
 32 29  1  0
 34  6  1  0
 34 33  1  0
 35 21  1  0
 36 30  1  0
 37 35  1  0
 37 36  1  0
  7 38  1  0
  8 39  1  0
  9 40  1  0
 10 41  1  0
 11 42  1  0
 12 43  1  0
 13 44  1  0
 14 45  1  0
 15 46  1  0
 16 47  1  0
 22 48  1  0
 23 49  1  0
 24 50  1  0
 31 51  1  0
 31 52  1  0
 32 53  1  0
 32 54  1  0
 32 55  1  0
 33 56  1  0
 33 57  1  0
 33 58  1  0
 34 59  1  0
 34 60  1  0
 35 61  1  0
 35 62  1  0
 36 63  1  0
 36 64  1  0
 37 65  1  0
 37 66  1  0
M  END
>  <Favorite_cresset>
false

>  <Protein_cresset>
sars_P

>  <MW_cresset>
513.0

>  <#Atoms_cresset>
37

>  <SlogP_cresset>
6.2

>  <TPSA_cresset>
56.8

>  <Flexibility_cresset>
5.5

>  <HBA_cresset>
6

>  <HBD_cresset>
0

>  <Rof5_cresset>
2

>  <Confs_cresset>
0

>  <Poses_cresset>
0

$$$$
predicted (21)
  xed2sdf           3D
 
 59 64  0  0  1  0  0  0  0  0999 V2000
   10.5570    3.3520   23.6760 O   0  0  0  0  0  0  0  0  0  0  0  0
    8.5750    1.4220   21.5230 O   0  0  0  0  0  0  0  0  0  0  0  0
    6.1250   -0.3340   17.8990 N   0  0  0  0  0  0  0  0  0  0  0  0
    5.3830    4.5250   23.3560 N   0  0  0  0  0  0  0  0  0  0  0  0
   10.2040    2.1890   23.7920 C   0  0  0  0  0  0  0  0  0  0  0  0
    8.3710    0.2860   21.8960 C   0  0  0  0  0  0  0  0  0  0  0  0
    5.8910    3.5870   24.1320 C   0  0  0  0  0  0  0  0  0  0  0  0
    6.8710   -0.6290   18.9780 C   0  0  0  0  0  0  0  0  0  0  0  0
   13.3810    0.1660   23.4660 C   0  0  0  0  0  0  0  0  0  0  0  0
   12.5040    1.2470   23.5770 C   0  0  0  0  0  0  0  0  0  0  0  0
   11.4930   -1.3240   23.1040 C   0  0  0  0  0  0  0  0  0  0  0  0
    2.9130    1.8800   20.7810 C   0  0  0  0  0  0  0  0  0  0  0  0
    3.7140    1.6190   21.9040 C   0  0  0  0  0  0  0  0  0  0  0  0
   12.8680   -1.1190   23.2690 C   0  0  0  0  0  0  0  0  0  0  0  0
   11.1210    1.0470   23.4570 C   0  0  0  0  0  0  0  0  0  0  0  0
    7.2990    3.6790   24.1390 C   0  0  0  0  0  0  0  0  0  0  0  0
   10.5900   -0.2320   23.1610 C   0  0  0  0  0  0  0  0  0  0  0  0
    5.0000    0.3790   18.0860 C   0  0  0  0  0  0  0  0  0  0  0  0
    3.3420    1.4790   19.5060 C   0  0  0  0  0  0  0  0  0  0  0  0
    4.9330    0.9330   21.7580 C   0  0  0  0  0  0  0  0  0  0  0  0
    6.5510   -0.2080   20.2730 C   0  0  0  0  0  0  0  0  0  0  0  0
    7.6860    4.7280   23.3550 C   0  0  0  0  0  0  0  0  0  0  0  0
    4.5610    0.7960   19.3530 C   0  0  0  0  0  0  0  0  0  0  0  0
    5.3570    0.5130   20.4810 C   0  0  0  0  0  0  0  0  0  0  0  0
    7.4240   -0.5320   21.3330 N   0  0  0  0  0  0  0  0  0  0  0  0
    8.9690    1.8200   24.3310 N   0  0  0  0  0  0  0  0  0  0  0  0
    6.4690    5.2380   22.9050 N   0  0  0  0  0  0  0  0  0  0  0  0
    8.1590    2.8270   25.0470 C   0  0  0  0  0  0  0  0  0  0  0  0
    6.2410    6.4750   22.1610 C   0  0  0  0  0  0  0  0  0  0  0  0
    8.2700   -2.6690   24.2180 C   0  0  0  0  0  0  0  0  0  0  0  0
    7.2960   -1.7850   22.0350 C   0  0  0  0  0  0  0  0  0  0  0  0
    8.5150    0.3920   24.3470 C   0  0  0  0  0  0  0  0  0  0  0  0
    8.5390   -1.8630   22.9240 C   0  0  0  0  0  0  0  0  0  0  0  0
    9.0480   -0.3810   23.1020 C   0  0  0  0  0  0  0  0  0  0  0  0
   13.7090   -2.1730   23.2820 F   0  0  0  0  0  0  0  0  0  0  0  0
    5.2290    2.9360   24.6820 H   0  0  0  0  0  0  0  0  0  0  0  0
    7.7760   -1.2040   18.7990 H   0  0  0  0  0  0  0  0  0  0  0  0
   14.4450    0.3230   23.5680 H   0  0  0  0  0  0  0  0  0  0  0  0
   12.8840    2.2370   23.8200 H   0  0  0  0  0  0  0  0  0  0  0  0
   11.1600   -2.3450   22.9650 H   0  0  0  0  0  0  0  0  0  0  0  0
    1.9530    2.3770   20.9030 H   0  0  0  0  0  0  0  0  0  0  0  0
    3.3760    1.9180   22.8930 H   0  0  0  0  0  0  0  0  0  0  0  0
    4.4560    0.6460   17.1860 H   0  0  0  0  0  0  0  0  0  0  0  0
    2.6990    1.6520   18.6520 H   0  0  0  0  0  0  0  0  0  0  0  0
    5.5180    0.7040   22.6440 H   0  0  0  0  0  0  0  0  0  0  0  0
    8.6560    5.1640   23.1340 H   0  0  0  0  0  0  0  0  0  0  0  0
    8.8430    3.4980   25.5870 H   0  0  0  0  0  0  0  0  0  0  0  0
    7.5400    2.3210   25.8020 H   0  0  0  0  0  0  0  0  0  0  0  0
    5.1640    6.6280   22.0390 H   0  0  0  0  0  0  0  0  0  0  0  0
    6.7200    6.4340   21.1770 H   0  0  0  0  0  0  0  0  0  0  0  0
    6.6470    7.3150   22.7320 H   0  0  0  0  0  0  0  0  0  0  0  0
    7.2660   -2.4570   24.6050 H   0  0  0  0  0  0  0  0  0  0  0  0
    8.9940   -2.4420   25.0090 H   0  0  0  0  0  0  0  0  0  0  0  0
    8.3260   -3.7440   24.0020 H   0  0  0  0  0  0  0  0  0  0  0  0
    6.3890   -1.7470   22.6480 H   0  0  0  0  0  0  0  0  0  0  0  0
    7.2550   -2.6220   21.3260 H   0  0  0  0  0  0  0  0  0  0  0  0
    7.4170    0.3470   24.3760 H   0  0  0  0  0  0  0  0  0  0  0  0
    8.9240   -0.0880   25.2460 H   0  0  0  0  0  0  0  0  0  0  0  0
    9.2480   -2.4110   22.2930 H   0  0  0  0  0  0  0  0  0  0  0  0
  5  1  2  0
  6  2  2  0
  7  4  2  0
  8  3  2  0
 10  9  1  0
 13 12  1  0
 14  9  2  0
 14 11  1  0
 15  5  1  0
 15 10  2  0
 16  7  1  0
 17 11  2  0
 17 15  1  0
 18  3  1  0
 19 12  2  0
 20 13  2  0
 21  8  1  0
 22 16  2  0
 23 18  2  0
 23 19  1  0
 24 20  1  0
 24 21  2  0
 24 23  1  0
 25  6  1  0
 25 21  1  0
 26  5  1  0
 27  4  1  0
 27 22  1  0
 28 16  1  0
 28 26  1  0
 29 27  1  0
 31 25  1  0
 32 26  1  0
 33 30  1  0
 33 31  1  0
 34  6  1  0
 34 17  1  0
 34 32  1  0
 34 33  1  0
 35 14  1  0
  7 36  1  0
  8 37  1  0
  9 38  1  0
 10 39  1  0
 11 40  1  0
 12 41  1  0
 13 42  1  0
 18 43  1  0
 19 44  1  0
 20 45  1  0
 22 46  1  0
 28 47  1  0
 28 48  1  0
 29 49  1  0
 29 50  1  0
 29 51  1  0
 30 52  1  0
 30 53  1  0
 30 54  1  0
 31 55  1  0
 31 56  1  0
 32 57  1  0
 32 58  1  0
 33 59  1  0
M  END
>  <Favorite_cresset>
false

>  <Protein_cresset>
sars_P

>  <MW_cresset>
469.5

>  <#Atoms_cresset>
35

>  <SlogP_cresset>
4.0

>  <TPSA_cresset>
71.3

>  <Flexibility_cresset>
2.9

>  <HBA_cresset>
7

>  <HBD_cresset>
0

>  <Rof5_cresset>
0

>  <Confs_cresset>
0

>  <Poses_cresset>
0

$$$$
predicted (22)
  xed2sdf           3D
 
 41 44  0  0  0  0  0  0  0  0999 V2000
   12.4380   -3.8650   24.6710 Cl  0  0  0  0  0  0  0  0  0  0  0  0
    7.6240    1.2910   21.6700 O   0  0  0  0  0  0  0  0  0  0  0  0
    6.0430   -0.0070   17.5920 N   0  0  0  0  0  0  0  0  0  0  0  0
    7.8540    0.1050   21.8290 C   0  0  0  0  0  0  0  0  0  0  0  0
    6.6550   -0.5590   18.6540 C   0  0  0  0  0  0  0  0  0  0  0  0
   13.7440   -0.2480   23.4980 C   0  0  0  0  0  0  0  0  0  0  0  0
   13.6820   -1.5840   23.9090 C   0  0  0  0  0  0  0  0  0  0  0  0
   12.5570    0.4510   23.2110 C   0  0  0  0  0  0  0  0  0  0  0  0
    2.7400    1.9510   20.5690 C   0  0  0  0  0  0  0  0  0  0  0  0
    3.4670    1.5020   21.6780 C   0  0  0  0  0  0  0  0  0  0  0  0
   12.4430   -2.2020   24.1060 C   0  0  0  0  0  0  0  0  0  0  0  0
   11.3020   -0.1830   23.3440 C   0  0  0  0  0  0  0  0  0  0  0  0
   11.2410   -1.5100   23.8260 C   0  0  0  0  0  0  0  0  0  0  0  0
    4.9180    0.6970   17.8060 C   0  0  0  0  0  0  0  0  0  0  0  0
    3.1730    1.6160   19.2810 C   0  0  0  0  0  0  0  0  0  0  0  0
    4.5780    0.6620   21.4970 C   0  0  0  0  0  0  0  0  0  0  0  0
    6.2080   -0.3970   19.9670 C   0  0  0  0  0  0  0  0  0  0  0  0
    4.3520    0.8750   19.0870 C   0  0  0  0  0  0  0  0  0  0  0  0
    5.0330    0.3510   20.2000 C   0  0  0  0  0  0  0  0  0  0  0  0
    8.8950   -0.3540   22.6220 N   0  0  0  0  0  0  0  0  0  0  0  0
    7.0710   -0.9820   21.0650 C   0  0  0  0  0  0  0  0  0  0  0  0
   10.0060    0.5570   22.9910 C   0  0  0  0  0  0  0  0  0  0  0  0
    9.9000   -2.2330   23.9680 C   0  0  0  0  0  0  0  0  0  0  0  0
    8.6350   -1.4160   23.6210 C   0  0  0  0  0  0  0  0  0  0  0  0
    7.5840   -1.0960   18.4610 H   0  0  0  0  0  0  0  0  0  0  0  0
   14.7100    0.2330   23.3600 H   0  0  0  0  0  0  0  0  0  0  0  0
   14.5860   -2.1530   24.0870 H   0  0  0  0  0  0  0  0  0  0  0  0
   12.6230    1.4730   22.8510 H   0  0  0  0  0  0  0  0  0  0  0  0
    1.8640    2.5840   20.7060 H   0  0  0  0  0  0  0  0  0  0  0  0
    3.1800    1.8150   22.6770 H   0  0  0  0  0  0  0  0  0  0  0  0
    4.5240    1.2120   16.9360 H   0  0  0  0  0  0  0  0  0  0  0  0
    2.6030    1.9660   18.4400 H   0  0  0  0  0  0  0  0  0  0  0  0
    5.1160    0.3130   22.3710 H   0  0  0  0  0  0  0  0  0  0  0  0
    7.8090   -1.6550   20.6240 H   0  0  0  0  0  0  0  0  0  0  0  0
    6.4750   -1.6250   21.7190 H   0  0  0  0  0  0  0  0  0  0  0  0
   10.1860    1.2310   22.1430 H   0  0  0  0  0  0  0  0  0  0  0  0
    9.6800    1.1630   23.8480 H   0  0  0  0  0  0  0  0  0  0  0  0
    9.9240   -3.1160   23.3190 H   0  0  0  0  0  0  0  0  0  0  0  0
    9.7840   -2.6100   24.9890 H   0  0  0  0  0  0  0  0  0  0  0  0
    7.8590   -2.1160   23.2660 H   0  0  0  0  0  0  0  0  0  0  0  0
    8.2550   -0.9340   24.5360 H   0  0  0  0  0  0  0  0  0  0  0  0
  4  2  2  0
  5  3  2  0
  7  6  2  0
  8  6  1  0
 10  9  1  0
 11  1  1  0
 11  7  1  0
 12  8  2  0
 13 11  2  0
 13 12  1  0
 14  3  1  0
 15  9  2  0
 16 10  2  0
 17  5  1  0
 18 14  2  0
 18 15  1  0
 19 16  1  0
 19 17  2  0
 19 18  1  0
 20  4  1  0
 21  4  1  0
 21 17  1  0
 22 12  1  0
 22 20  1  0
 23 13  1  0
 24 20  1  0
 24 23  1  0
  5 25  1  0
  6 26  1  0
  7 27  1  0
  8 28  1  0
  9 29  1  0
 10 30  1  0
 14 31  1  0
 15 32  1  0
 16 33  1  0
 21 34  1  0
 21 35  1  0
 22 36  1  0
 22 37  1  0
 23 38  1  0
 23 39  1  0
 24 40  1  0
 24 41  1  0
M  END
>  <Favorite_cresset>
false

>  <Protein_cresset>
sars_P

>  <MW_cresset>
336.8

>  <#Atoms_cresset>
24

>  <SlogP_cresset>
4.0

>  <TPSA_cresset>
33.2

>  <Flexibility_cresset>
2.7

>  <HBA_cresset>
3

>  <HBD_cresset>
0

>  <Rof5_cresset>
0

>  <Confs_cresset>
0

>  <Poses_cresset>
0

$$$$
predicted (23)
  xed2sdf           3D
 
 67 72  0  0  1  0  0  0  0  0999 V2000
  -14.1510   -3.1820  -21.6180 Cl  0  0  0  0  0  0  0  0  0  0  0  0
  -10.8370    1.9520  -24.2270 O   0  0  0  0  0  0  0  0  0  0  0  0
   -9.2150   -0.1300  -21.3280 O   0  0  0  0  0  0  0  0  0  0  0  0
   -6.3490   -0.8520  -18.2090 N   0  0  0  0  0  0  0  0  0  0  0  0
   -6.4070    6.0610  -23.0870 O   0  0  0  0  0  0  0  0  0  0  0  0
  -10.4450    0.7990  -24.1510 C   0  0  0  0  0  0  0  0  0  0  0  0
   -8.7030   -1.0380  -21.9560 C   0  0  0  0  0  0  0  0  0  0  0  0
   -7.0130   -1.3440  -19.2730 C   0  0  0  0  0  0  0  0  0  0  0  0
  -13.6250   -0.9820  -23.0880 C   0  0  0  0  0  0  0  0  0  0  0  0
  -12.7490   -0.0620  -23.6610 C   0  0  0  0  0  0  0  0  0  0  0  0
  -11.7350   -2.4670  -22.6440 C   0  0  0  0  0  0  0  0  0  0  0  0
   -3.0430    1.0870  -21.1720 C   0  0  0  0  0  0  0  0  0  0  0  0
   -3.7220    0.5650  -22.2860 C   0  0  0  0  0  0  0  0  0  0  0  0
  -13.1060   -2.1620  -22.5440 C   0  0  0  0  0  0  0  0  0  0  0  0
  -11.3640   -0.3150  -23.7110 C   0  0  0  0  0  0  0  0  0  0  0  0
  -10.8390   -1.5420  -23.2270 C   0  0  0  0  0  0  0  0  0  0  0  0
   -5.2360   -0.1310  -18.4300 C   0  0  0  0  0  0  0  0  0  0  0  0
   -3.5570    0.8650  -19.8850 C   0  0  0  0  0  0  0  0  0  0  0  0
   -4.9070   -0.1750  -22.1230 C   0  0  0  0  0  0  0  0  0  0  0  0
   -6.6190   -1.1420  -20.6020 C   0  0  0  0  0  0  0  0  0  0  0  0
   -4.7320    0.1110  -19.7190 C   0  0  0  0  0  0  0  0  0  0  0  0
   -5.4280   -0.4110  -20.8350 C   0  0  0  0  0  0  0  0  0  0  0  0
   -7.4870   -1.5990  -21.6410 N   0  0  0  0  0  0  0  0  0  0  0  0
   -9.1260    0.4470  -24.4020 N   0  0  0  0  0  0  0  0  0  0  0  0
   -5.9770    5.2130  -22.0180 C   0  0  0  0  0  0  0  0  0  0  0  0
   -8.1120    1.4650  -24.7020 C   0  0  0  0  0  0  0  0  0  0  0  0
   -8.2410    6.9310  -24.3640 C   0  0  0  0  0  0  0  0  0  0  0  0
   -8.4520   -4.0210  -24.3280 C   0  0  0  0  0  0  0  0  0  0  0  0
   -7.3120   -2.8690  -22.3440 C   0  0  0  0  0  0  0  0  0  0  0  0
   -8.7020   -0.9640  -24.4190 C   0  0  0  0  0  0  0  0  0  0  0  0
   -5.9930    3.7480  -22.4970 C   0  0  0  0  0  0  0  0  0  0  0  0
   -7.4340    1.9800  -23.4420 C   0  0  0  0  0  0  0  0  0  0  0  0
   -7.8920    4.4040  -24.0560 C   0  0  0  0  0  0  0  0  0  0  0  0
   -7.7770    5.8140  -23.4210 C   0  0  0  0  0  0  0  0  0  0  0  0
   -8.6650   -3.1450  -23.0500 C   0  0  0  0  0  0  0  0  0  0  0  0
   -9.2940   -1.7090  -23.2000 C   0  0  0  0  0  0  0  0  0  0  0  0
   -7.2170    3.3450  -23.2440 N   0  3  0  0  0  0  0  0  0  0  0  0
   -7.9110   -1.9140  -19.0650 H   0  0  0  0  0  0  0  0  0  0  0  0
  -14.6760   -0.7220  -22.9720 H   0  0  0  0  0  0  0  0  0  0  0  0
  -13.1460    0.8830  -24.0150 H   0  0  0  0  0  0  0  0  0  0  0  0
  -11.3730   -3.3820  -22.1890 H   0  0  0  0  0  0  0  0  0  0  0  0
   -2.1260    1.6590  -21.2970 H   0  0  0  0  0  0  0  0  0  0  0  0
   -3.3240    0.7380  -23.2820 H   0  0  0  0  0  0  0  0  0  0  0  0
   -4.7320    0.2760  -17.5540 H   0  0  0  0  0  0  0  0  0  0  0  0
   -3.0350    1.2700  -19.0190 H   0  0  0  0  0  0  0  0  0  0  0  0
   -5.4120   -0.5700  -22.9970 H   0  0  0  0  0  0  0  0  0  0  0  0
   -4.9610    5.4810  -21.7030 H   0  0  0  0  0  0  0  0  0  0  0  0
   -6.6460    5.3330  -21.1590 H   0  0  0  0  0  0  0  0  0  0  0  0
   -8.6010    2.2740  -25.2510 H   0  0  0  0  0  0  0  0  0  0  0  0
   -7.3660    1.0310  -25.3760 H   0  0  0  0  0  0  0  0  0  0  0  0
   -9.3240    6.8670  -24.5120 H   0  0  0  0  0  0  0  0  0  0  0  0
   -7.7500    6.8490  -25.3410 H   0  0  0  0  0  0  0  0  0  0  0  0
   -8.0070    7.9180  -23.9450 H   0  0  0  0  0  0  0  0  0  0  0  0
   -7.4170   -3.9370  -24.6910 H   0  0  0  0  0  0  0  0  0  0  0  0
   -9.1190   -3.7590  -25.1610 H   0  0  0  0  0  0  0  0  0  0  0  0
   -8.6130   -5.0800  -24.0750 H   0  0  0  0  0  0  0  0  0  0  0  0
   -6.5150   -2.7460  -23.0840 H   0  0  0  0  0  0  0  0  0  0  0  0
   -7.0610   -3.6890  -21.6640 H   0  0  0  0  0  0  0  0  0  0  0  0
   -7.6060   -1.0230  -24.3960 H   0  0  0  0  0  0  0  0  0  0  0  0
   -9.0570   -1.4320  -25.3470 H   0  0  0  0  0  0  0  0  0  0  0  0
   -5.1210    3.5770  -23.1340 H   0  0  0  0  0  0  0  0  0  0  0  0
   -5.8620    3.1090  -21.6170 H   0  0  0  0  0  0  0  0  0  0  0  0
   -7.0980    1.3070  -22.6590 H   0  0  0  0  0  0  0  0  0  0  0  0
   -8.9650    4.1830  -24.1510 H   0  0  0  0  0  0  0  0  0  0  0  0
   -7.4810    4.4130  -25.0740 H   0  0  0  0  0  0  0  0  0  0  0  0
   -8.3860    5.8570  -22.5100 H   0  0  0  0  0  0  0  0  0  0  0  0
   -9.2690   -3.7210  -22.3410 H   0  0  0  0  0  0  0  0  0  0  0  0
  6  2  2  0
  7  3  2  0
  8  4  2  0
 10  9  1  0
 13 12  1  0
 14  1  1  0
 14  9  2  0
 14 11  1  0
 15  6  1  0
 15 10  2  0
 16 11  2  0
 16 15  1  0
 17  4  1  0
 18 12  2  0
 19 13  2  0
 20  8  1  0
 21 17  2  0
 21 18  1  0
 22 19  1  0
 22 20  2  0
 22 21  1  0
 23  7  1  0
 23 20  1  0
 24  6  1  0
 25  5  1  0
 26 24  1  0
 29 23  1  0
 30 24  1  0
 31 25  1  0
 32 26  1  0
 34  5  1  0
 34 27  1  0
 34 33  1  0
 35 28  1  0
 35 29  1  0
 36  7  1  0
 36 16  1  0
 36 30  1  0
 36 35  1  0
 37 31  1  0
 37 32  2  0
 37 33  1  0
  8 38  1  0
  9 39  1  0
 10 40  1  0
 11 41  1  0
 12 42  1  0
 13 43  1  0
 17 44  1  0
 18 45  1  0
 19 46  1  0
 25 47  1  0
 25 48  1  0
 26 49  1  0
 26 50  1  0
 27 51  1  0
 27 52  1  0
 27 53  1  0
 28 54  1  0
 28 55  1  0
 28 56  1  0
 29 57  1  0
 29 58  1  0
 30 59  1  0
 30 60  1  0
 31 61  1  0
 31 62  1  0
 32 63  1  0
 33 64  1  0
 33 65  1  0
 34 66  1  0
 35 67  1  0
M  CHG  1  37   1
M  END
>  <Favorite_cresset>
false

>  <Protein_cresset>
sars_P

>  <MW_cresset>
518.0

>  <#Atoms_cresset>
37

>  <SlogP_cresset>
3.8

>  <TPSA_cresset>
65.8

>  <Flexibility_cresset>
4.1

>  <HBA_cresset>
7

>  <HBD_cresset>
0

>  <Rof5_cresset>
1

>  <Confs_cresset>
0

>  <Poses_cresset>
0

$$$$
predicted (24)
  xed2sdf           3D
 
 66 73  0  0  1  0  0  0  0  0999 V2000
   13.5060   -1.9200   22.0090 Cl  0  0  0  0  0  0  0  0  0  0  0  0
   10.3180    3.6960   23.4490 O   0  0  0  0  0  0  0  0  0  0  0  0
    8.6140    1.5900   20.6840 O   0  0  0  0  0  0  0  0  0  0  0  0
    6.1750    0.0980   17.3270 N   0  0  0  0  0  0  0  0  0  0  0  0
    3.4510   -2.2560   26.4590 O   0  0  0  0  0  0  0  0  0  0  0  0
    6.9470   -1.8910   24.3710 O   0  0  0  0  0  0  0  0  0  0  0  0
    9.9000    2.5350   23.3950 C   0  0  0  0  0  0  0  0  0  0  0  0
    8.2650    0.5560   21.2280 C   0  0  0  0  0  0  0  0  0  0  0  0
    6.9030   -0.2430   18.3710 C   0  0  0  0  0  0  0  0  0  0  0  0
   12.9550    0.5510   22.7430 C   0  0  0  0  0  0  0  0  0  0  0  0
   12.1370    1.5960   23.0430 C   0  0  0  0  0  0  0  0  0  0  0  0
   11.0490   -0.8320   22.2960 C   0  0  0  0  0  0  0  0  0  0  0  0
    2.8650    1.9970   20.2230 C   0  0  0  0  0  0  0  0  0  0  0  0
    3.5990    1.6430   21.3350 C   0  0  0  0  0  0  0  0  0  0  0  0
   12.4220   -0.6580   22.3690 C   0  0  0  0  0  0  0  0  0  0  0  0
   10.7830    1.4390   23.0290 C   0  0  0  0  0  0  0  0  0  0  0  0
   10.2260    0.1990   22.6830 C   0  0  0  0  0  0  0  0  0  0  0  0
    5.0010    0.7010   17.5020 C   0  0  0  0  0  0  0  0  0  0  0  0
    3.3200    1.6850   18.9530 C   0  0  0  0  0  0  0  0  0  0  0  0
    4.7750    0.9970   21.1860 C   0  0  0  0  0  0  0  0  0  0  0  0
    6.4990    0.0250   19.6880 C   0  0  0  0  0  0  0  0  0  0  0  0
    4.5160    1.0300   18.7810 C   0  0  0  0  0  0  0  0  0  0  0  0
    5.2570    0.6860   19.9090 C   0  0  0  0  0  0  0  0  0  0  0  0
    7.3040   -0.2710   20.7590 N   0  0  0  0  0  0  0  0  0  0  0  0
    8.5570    2.2860   23.5940 N   0  0  0  0  0  0  0  0  0  0  0  0
    4.6050   -1.3670   26.4290 C   0  0  0  0  0  0  0  0  0  0  0  0
    4.2360   -3.2690   25.8150 C   0  0  0  0  0  0  0  0  0  0  0  0
    6.6510   -2.5750   25.5110 C   0  0  0  0  0  0  0  0  0  0  0  0
    7.6750    3.3430   23.9140 C   0  0  0  0  0  0  0  0  0  0  0  0
    5.2940   -2.4150   25.8620 C   0  0  0  0  0  0  0  0  0  0  0  0
    8.1530   -2.0030   23.8520 C   0  0  0  0  0  0  0  0  0  0  0  0
    7.2220   -1.4440   21.5340 C   0  0  0  0  0  0  0  0  0  0  0  0
    8.0760    0.9610   23.6270 C   0  0  0  0  0  0  0  0  0  0  0  0
    5.5960    5.3350   21.6189 C   0  0  0  0  0  0  0  0  0  0  0  0
    7.2120    3.9640   22.6240 C   0  0  0  0  0  0  0  0  0  0  0  0
    8.2700   -1.3270   22.5690 C   0  0  0  0  0  0  0  0  0  0  0  0
    8.7540    0.0850   22.5810 C   0  0  0  0  0  0  0  0  0  0  0  0
    6.1900    4.8780   22.7820 N   0  0  0  0  0  0  0  0  0  0  0  0
    7.8442   -0.7468   18.2073 H   0  0  0  0  0  0  0  0  0  0  0  0
   14.0267    0.6727   22.7992 H   0  0  0  0  0  0  0  0  0  0  0  0
   12.5633    2.5561   23.2937 H   0  0  0  0  0  0  0  0  0  0  0  0
   10.6321   -1.7628   21.9407 H   0  0  0  0  0  0  0  0  0  0  0  0
    1.9285    2.5214   20.3433 H   0  0  0  0  0  0  0  0  0  0  0  0
    3.2341    1.8819   22.3231 H   0  0  0  0  0  0  0  0  0  0  0  0
    4.4031    0.9449   16.6363 H   0  0  0  0  0  0  0  0  0  0  0  0
    2.7303    1.9586   18.0905 H   0  0  0  0  0  0  0  0  0  0  0  0
    5.3479    0.7182   22.0581 H   0  0  0  0  0  0  0  0  0  0  0  0
    4.4306   -0.4011   26.8797 H   0  0  0  0  0  0  0  0  0  0  0  0
    3.6906   -4.1878   25.6578 H   0  0  0  0  0  0  0  0  0  0  0  0
    7.2693   -2.2044   26.3152 H   0  0  0  0  0  0  0  0  0  0  0  0
    6.8536   -3.6243   25.3553 H   0  0  0  0  0  0  0  0  0  0  0  0
    8.1881    4.0806   24.5133 H   0  0  0  0  0  0  0  0  0  0  0  0
    6.8270    2.9602   24.4624 H   0  0  0  0  0  0  0  0  0  0  0  0
    8.8671   -1.5714   24.5378 H   0  0  0  0  0  0  0  0  0  0  0  0
    8.3749   -3.0508   23.7135 H   0  0  0  0  0  0  0  0  0  0  0  0
    6.2480   -1.5215   21.9942 H   0  0  0  0  0  0  0  0  0  0  0  0
    7.3993   -2.3131   20.9179 H   0  0  0  0  0  0  0  0  0  0  0  0
    7.0126    0.9707   23.4384 H   0  0  0  0  0  0  0  0  0  0  0  0
    8.2641    0.5454   24.6059 H   0  0  0  0  0  0  0  0  0  0  0  0
    4.5218    5.2940   21.7232 H   0  0  0  0  0  0  0  0  0  0  0  0
    5.9013    4.7131   20.7904 H   0  0  0  0  0  0  0  0  0  0  0  0
    5.9013    6.3546   21.4354 H   0  0  0  0  0  0  0  0  0  0  0  0
    8.0515    4.4673   22.1676 H   0  0  0  0  0  0  0  0  0  0  0  0
    6.8665    3.1761   21.9713 H   0  0  0  0  0  0  0  0  0  0  0  0
    9.0990   -1.8476   22.1127 H   0  0  0  0  0  0  0  0  0  0  0  0
    5.4227    4.4139   23.3839 H   0  0  0  0  0  0  0  0  0  0  0  0
  7  2  2  0
  8  3  2  0
  9  4  2  0
 11 10  1  0
 14 13  1  0
 15  1  1  0
 15 10  2  0
 15 12  1  0
 16  7  1  0
 16 11  2  0
 17 12  2  0
 17 16  1  0
 18  4  1  0
 19 13  2  0
 20 14  2  0
 21  9  1  0
 22 18  2  0
 22 19  1  0
 23 20  1  0
 23 21  2  0
 23 22  1  0
 24  8  1  0
 24 21  1  0
 25  7  1  0
 26  5  1  0
 27  5  1  0
 27 26  1  0
 28  6  1  0
 29 25  1  0
 30  5  1  0
 30 26  1  0
 30 27  1  0
 30 28  1  0
 31  6  1  0
 32 24  1  0
 33 25  1  0
 35 29  1  0
 36 31  1  0
 36 32  1  0
 37  8  1  0
 37 17  1  0
 37 33  1  0
 37 36  1  0
 38 34  1  0
 38 35  1  0
  9 39  1  0
 10 40  1  0
 11 41  1  0
 12 42  1  0
 13 43  1  0
 14 44  1  0
 18 45  1  0
 19 46  1  0
 20 47  1  0
 26 48  1  0
 27 49  1  0
 28 50  1  0
 28 51  1  0
 29 52  1  0
 29 53  1  0
 31 54  1  0
 31 55  1  0
 32 56  1  0
 32 57  1  0
 33 58  1  0
 33 59  1  0
 34 60  1  0
 34 61  1  0
 34 62  1  0
 35 63  1  0
 35 64  1  0
 36 65  1  0
 38 66  1  0
M  END
>  <Favorite_cresset>
false

>  <Protein_cresset>
sars_P

>  <MW_cresset>
532.0

>  <#Atoms_cresset>
38

>  <SlogP_cresset>
2.6

>  <TPSA_cresset>
74.8

>  <Flexibility_cresset>
7.9

>  <HBA_cresset>
8

>  <HBD_cresset>
1

>  <Rof5_cresset>
1

>  <Tags_cresset>
Minimize unsuccessful

>  <Confs_cresset>
0

>  <Poses_cresset>
0

$$$$
predicted (25)
  xed2sdf           3D
 
 68 73  0  0  1  0  0  0  0  0999 V2000
  -14.0620   -3.1760  -21.7650 Cl  0  0  0  0  0  0  0  0  0  0  0  0
  -10.8820    2.1900  -24.2390 O   0  0  0  0  0  0  0  0  0  0  0  0
   -5.8660    1.5960  -24.3420 O   0  0  0  0  0  0  0  0  0  0  0  0
   -9.0910    0.1460  -21.2640 O   0  0  0  0  0  0  0  0  0  0  0  0
   -6.1640   -0.9790  -18.1020 N   0  0  0  0  0  0  0  0  0  0  0  0
   -8.5220   -6.4180  -27.0810 N   0  0  0  0  0  0  0  0  0  0  0  0
  -10.4410    1.0620  -24.0870 C   0  0  0  0  0  0  0  0  0  0  0  0
   -6.9820    2.0030  -24.0630 C   0  0  0  0  0  0  0  0  0  0  0  0
   -8.6130   -0.7930  -21.8660 C   0  0  0  0  0  0  0  0  0  0  0  0
   -7.8930   -5.4510  -26.4440 C   0  0  0  0  0  0  0  0  0  0  0  0
   -6.9100   -1.3760  -19.1470 C   0  0  0  0  0  0  0  0  0  0  0  0
  -13.5600   -0.8710  -23.0780 C   0  0  0  0  0  0  0  0  0  0  0  0
  -12.7190    0.1090  -23.6040 C   0  0  0  0  0  0  0  0  0  0  0  0
  -11.6270   -2.2570  -22.5720 C   0  0  0  0  0  0  0  0  0  0  0  0
   -2.9570    0.9920  -21.1340 C   0  0  0  0  0  0  0  0  0  0  0  0
   -3.6470    0.4520  -22.2320 C   0  0  0  0  0  0  0  0  0  0  0  0
  -13.0120   -2.0400  -22.5500 C   0  0  0  0  0  0  0  0  0  0  0  0
  -11.3230   -0.0730  -23.6070 C   0  0  0  0  0  0  0  0  0  0  0  0
   -7.8550   -5.7580  -25.0650 C   0  0  0  0  0  0  0  0  0  0  0  0
  -10.7610   -1.2840  -23.1190 C   0  0  0  0  0  0  0  0  0  0  0  0
   -5.0520   -0.2620  -18.3390 C   0  0  0  0  0  0  0  0  0  0  0  0
   -3.4300    0.7650  -19.8340 C   0  0  0  0  0  0  0  0  0  0  0  0
   -4.8430   -0.2600  -22.0360 C   0  0  0  0  0  0  0  0  0  0  0  0
   -6.5700   -1.1000  -20.4710 C   0  0  0  0  0  0  0  0  0  0  0  0
   -8.3150   -7.0010  -24.8630 C   0  0  0  0  0  0  0  0  0  0  0  0
   -4.6000    0.0200  -19.6350 C   0  0  0  0  0  0  0  0  0  0  0  0
   -5.3430   -0.4520  -20.7350 C   0  0  0  0  0  0  0  0  0  0  0  0
   -7.2450    2.7840  -22.9510 N   0  0  0  0  0  0  0  0  0  0  0  0
   -7.6310   -4.8220  -24.1160 N   0  0  0  0  0  0  0  0  0  0  0  0
   -7.4650   -1.4570  -21.4970 N   0  0  0  0  0  0  0  0  0  0  0  0
   -9.1130    0.7480  -24.3450 N   0  0  0  0  0  0  0  0  0  0  0  0
   -8.8030   -7.3290  -26.0980 N   0  0  0  0  0  0  0  0  0  0  0  0
   -6.1650    3.3940  -22.1830 C   0  0  0  0  0  0  0  0  0  0  0  0
   -8.1820    1.7170  -24.9630 C   0  0  0  0  0  0  0  0  0  0  0  0
   -9.8410   -8.2780  -26.2910 C   0  0  0  0  0  0  0  0  0  0  0  0
   -8.2570   -3.5210  -24.3600 C   0  0  0  0  0  0  0  0  0  0  0  0
   -7.3070   -2.6990  -22.2050 C   0  0  0  0  0  0  0  0  0  0  0  0
   -8.6800   -0.6550  -24.3450 C   0  0  0  0  0  0  0  0  0  0  0  0
   -8.5960   -2.8680  -23.0200 C   0  0  0  0  0  0  0  0  0  0  0  0
   -9.2190   -1.4270  -23.1120 C   0  0  0  0  0  0  0  0  0  0  0  0
   -7.6150   -4.5380  -26.9550 H   0  0  0  0  0  0  0  0  0  0  0  0
   -7.8170   -1.9280  -18.9150 H   0  0  0  0  0  0  0  0  0  0  0  0
  -14.6290   -0.6970  -23.0460 H   0  0  0  0  0  0  0  0  0  0  0  0
  -13.1510    1.0350  -23.9730 H   0  0  0  0  0  0  0  0  0  0  0  0
  -11.2480   -3.1600  -22.1140 H   0  0  0  0  0  0  0  0  0  0  0  0
   -2.0500    1.5710  -21.2850 H   0  0  0  0  0  0  0  0  0  0  0  0
   -3.2600    0.6010  -23.2360 H   0  0  0  0  0  0  0  0  0  0  0  0
   -4.5050    0.0960  -17.4690 H   0  0  0  0  0  0  0  0  0  0  0  0
   -2.8840    1.1600  -18.9810 H   0  0  0  0  0  0  0  0  0  0  0  0
   -5.3570   -0.6670  -22.9020 H   0  0  0  0  0  0  0  0  0  0  0  0
   -8.5210   -7.5760  -23.9680 H   0  0  0  0  0  0  0  0  0  0  0  0
   -8.2030    3.0740  -22.7730 H   0  0  0  0  0  0  0  0  0  0  0  0
   -7.5400   -5.1370  -23.1560 H   0  0  0  0  0  0  0  0  0  0  0  0
   -5.4790    3.9090  -22.8660 H   0  0  0  0  0  0  0  0  0  0  0  0
   -5.6190    2.6160  -21.6360 H   0  0  0  0  0  0  0  0  0  0  0  0
   -6.5870    4.1250  -21.4910 H   0  0  0  0  0  0  0  0  0  0  0  0
   -7.8370    1.3110  -25.9230 H   0  0  0  0  0  0  0  0  0  0  0  0
   -8.6880    2.6710  -25.1500 H   0  0  0  0  0  0  0  0  0  0  0  0
  -10.7480   -7.7550  -26.6140 H   0  0  0  0  0  0  0  0  0  0  0  0
   -9.5540   -9.0190  -27.0220 H   0  0  0  0  0  0  0  0  0  0  0  0
  -10.0070   -8.7620  -25.3330 H   0  0  0  0  0  0  0  0  0  0  0  0
   -9.1800   -3.6210  -24.9530 H   0  0  0  0  0  0  0  0  0  0  0  0
   -7.5520   -2.9010  -24.9290 H   0  0  0  0  0  0  0  0  0  0  0  0
   -6.4370   -2.6250  -22.8680 H   0  0  0  0  0  0  0  0  0  0  0  0
   -7.1750   -3.5310  -21.5070 H   0  0  0  0  0  0  0  0  0  0  0  0
   -7.5870   -0.7120  -24.3670 H   0  0  0  0  0  0  0  0  0  0  0  0
   -9.0740   -1.1120  -25.2610 H   0  0  0  0  0  0  0  0  0  0  0  0
   -9.2400   -3.5400  -22.4410 H   0  0  0  0  0  0  0  0  0  0  0  0
  7  2  2  0
  8  3  2  0
  9  4  2  0
 10  6  2  0
 11  5  2  0
 13 12  1  0
 16 15  1  0
 17  1  1  0
 17 12  2  0
 17 14  1  0
 18  7  1  0
 18 13  2  0
 19 10  1  0
 20 14  2  0
 20 18  1  0
 21  5  1  0
 22 15  2  0
 23 16  2  0
 24 11  1  0
 25 19  2  0
 26 21  2  0
 26 22  1  0
 27 23  1  0
 27 24  2  0
 27 26  1  0
 28  8  1  0
 29 19  1  0
 30  9  1  0
 30 24  1  0
 31  7  1  0
 32  6  1  0
 32 25  1  0
 33 28  1  0
 34  8  1  0
 34 31  1  0
 35 32  1  0
 36 29  1  0
 37 30  1  0
 38 31  1  0
 39 36  1  0
 39 37  1  0
 40  9  1  0
 40 20  1  0
 40 38  1  0
 40 39  1  0
 10 41  1  0
 11 42  1  0
 12 43  1  0
 13 44  1  0
 14 45  1  0
 15 46  1  0
 16 47  1  0
 21 48  1  0
 22 49  1  0
 23 50  1  0
 25 51  1  0
 28 52  1  0
 29 53  1  0
 33 54  1  0
 33 55  1  0
 33 56  1  0
 34 57  1  0
 34 58  1  0
 35 59  1  0
 35 60  1  0
 35 61  1  0
 36 62  1  0
 36 63  1  0
 37 64  1  0
 37 65  1  0
 38 66  1  0
 38 67  1  0
 39 68  1  0
M  END
>  <Favorite_cresset>
false

>  <Protein_cresset>
sars_P

>  <MW_cresset>
558.0

>  <#Atoms_cresset>
40

>  <SlogP_cresset>
2.9

>  <TPSA_cresset>
112.5

>  <Flexibility_cresset>
5.1

>  <HBA_cresset>
10

>  <HBD_cresset>
2

>  <Rof5_cresset>
1

>  <Confs_cresset>
0

>  <Poses_cresset>
0

$$$$
predicted (26)
  xed2sdf           3D
 
 41 46  0  0  1  0  0  0  0  0999 V2000
  -11.2680   -3.4590  -23.6790 Cl  0  0  0  0  0  0  0  0  0  0  0  0
   -8.0890    1.8580  -22.4830 O   0  0  0  0  0  0  0  0  0  0  0  0
   -5.9220   -2.1040  -21.6800 O   0  0  0  0  0  0  0  0  0  0  0  0
   -5.4930   -0.0390  -18.4030 N   0  0  0  0  0  0  0  0  0  0  0  0
   -7.7510    0.6930  -22.5970 C   0  0  0  0  0  0  0  0  0  0  0  0
   -6.6730   -1.2910  -22.1950 C   0  0  0  0  0  0  0  0  0  0  0  0
   -6.4030   -0.0370  -19.3910 C   0  0  0  0  0  0  0  0  0  0  0  0
  -10.4910   -5.7580  -26.8990 C   0  0  0  0  0  0  0  0  0  0  0  0
   -9.2890   -5.2260  -27.3910 C   0  0  0  0  0  0  0  0  0  0  0  0
  -11.0450   -5.2290  -25.7250 C   0  0  0  0  0  0  0  0  0  0  0  0
   -8.6330   -4.1950  -26.6910 C   0  0  0  0  0  0  0  0  0  0  0  0
   -2.2720    1.9130  -21.4850 C   0  0  0  0  0  0  0  0  0  0  0  0
   -3.2500    1.9610  -22.4900 C   0  0  0  0  0  0  0  0  0  0  0  0
  -10.4400   -4.1450  -25.0720 C   0  0  0  0  0  0  0  0  0  0  0  0
   -9.2120   -3.6270  -25.5380 C   0  0  0  0  0  0  0  0  0  0  0  0
   -4.2720    0.4500  -18.6920 C   0  0  0  0  0  0  0  0  0  0  0  0
   -2.5980    1.4240  -20.2110 C   0  0  0  0  0  0  0  0  0  0  0  0
   -4.5350    1.4790  -22.2300 C   0  0  0  0  0  0  0  0  0  0  0  0
   -6.1400    0.4640  -20.6770 C   0  0  0  0  0  0  0  0  0  0  0  0
   -3.9120    0.9940  -19.9340 C   0  0  0  0  0  0  0  0  0  0  0  0
   -4.8790    1.0200  -20.9480 C   0  0  0  0  0  0  0  0  0  0  0  0
   -6.9100   -0.0110  -21.7540 N   0  0  0  0  0  0  0  0  0  0  0  0
   -8.1210   -0.1680  -23.6160 N   0  0  0  0  0  0  0  0  0  0  0  0
   -8.2410   -2.7980  -23.3500 C   0  0  0  0  0  0  0  0  0  0  0  0
   -7.0930   -2.5490  -24.4090 C   0  0  0  0  0  0  0  0  0  0  0  0
   -8.5520   -2.4970  -24.7990 C   0  0  0  0  0  0  0  0  0  0  0  0
   -7.5210   -1.4860  -23.4050 C   0  0  0  0  0  0  0  0  0  0  0  0
   -7.3520   -0.5230  -19.1740 H   0  0  0  0  0  0  0  0  0  0  0  0
  -10.9980   -6.5610  -27.4310 H   0  0  0  0  0  0  0  0  0  0  0  0
   -8.8560   -5.6040  -28.3150 H   0  0  0  0  0  0  0  0  0  0  0  0
  -11.9580   -5.6530  -25.3240 H   0  0  0  0  0  0  0  0  0  0  0  0
   -7.6670   -3.8410  -27.0390 H   0  0  0  0  0  0  0  0  0  0  0  0
   -1.2550    2.2290  -21.6980 H   0  0  0  0  0  0  0  0  0  0  0  0
   -3.0110    2.3290  -23.4830 H   0  0  0  0  0  0  0  0  0  0  0  0
   -3.5370    0.3210  -17.9220 H   0  0  0  0  0  0  0  0  0  0  0  0
   -1.8240    1.3540  -19.4560 H   0  0  0  0  0  0  0  0  0  0  0  0
   -5.2530    1.4650  -23.0400 H   0  0  0  0  0  0  0  0  0  0  0  0
   -8.5840    0.1360  -24.4650 H   0  0  0  0  0  0  0  0  0  0  0  0
   -7.9740   -3.7210  -22.8420 H   0  0  0  0  0  0  0  0  0  0  0  0
   -6.4100   -3.3870  -24.2970 H   0  0  0  0  0  0  0  0  0  0  0  0
   -8.9960   -1.5820  -25.1930 H   0  0  0  0  0  0  0  0  0  0  0  0
  5  2  2  0
  6  3  2  0
  7  4  2  0
  9  8  2  0
 10  8  1  0
 11  9  1  0
 13 12  1  0
 14  1  1  0
 14 10  2  0
 15 11  2  0
 15 14  1  0
 16  4  1  0
 17 12  2  0
 18 13  2  0
 19  7  1  0
 20 16  2  0
 20 17  1  0
 21 18  1  0
 21 19  2  0
 21 20  1  0
 22  5  1  0
 22  6  1  0
 22 19  1  0
 23  5  1  0
 25 24  1  0
 26 15  1  0
 26 24  1  0
 26 25  1  0
 27  6  1  0
 27 23  1  0
 27 24  1  0
 27 25  1  0
  7 28  1  0
  8 29  1  0
  9 30  1  0
 10 31  1  0
 11 32  1  0
 12 33  1  0
 13 34  1  0
 16 35  1  0
 17 36  1  0
 18 37  1  0
 23 38  1  0
 24 39  1  0
 25 40  1  0
 26 41  1  0
M  END
>  <Favorite_cresset>
false

>  <Protein_cresset>
sars_P

>  <MW_cresset>
375.8

>  <#Atoms_cresset>
27

>  <SlogP_cresset>
3.8

>  <TPSA_cresset>
62.3

>  <Flexibility_cresset>
0.3

>  <HBA_cresset>
5

>  <HBD_cresset>
1

>  <Rof5_cresset>
0

>  <Confs_cresset>
0

>  <Poses_cresset>
0

$$$$
predicted (27)
  xed2sdf           3D
 
 46 48  0  0  1  0  0  0  0  0999 V2000
    7.5150    1.1940   21.8700 O   0  0  0  0  0  0  0  0  0  0  0  0
    5.9550    0.0230   17.6200 N   0  0  0  0  0  0  0  0  0  0  0  0
    7.8830    0.0350   21.8120 C   0  0  0  0  0  0  0  0  0  0  0  0
    6.6170   -0.5090   18.6560 C   0  0  0  0  0  0  0  0  0  0  0  0
    2.6300    1.7590   20.6760 C   0  0  0  0  0  0  0  0  0  0  0  0
    3.2670    1.1340   21.7550 C   0  0  0  0  0  0  0  0  0  0  0  0
    4.8220    0.6860   17.8760 C   0  0  0  0  0  0  0  0  0  0  0  0
    3.1160    1.5620   19.3820 C   0  0  0  0  0  0  0  0  0  0  0  0
    4.4130    0.3520   21.5470 C   0  0  0  0  0  0  0  0  0  0  0  0
    6.1680   -0.4360   19.9800 C   0  0  0  0  0  0  0  0  0  0  0  0
    4.2750    0.8120   19.1650 C   0  0  0  0  0  0  0  0  0  0  0  0
    4.9480    0.2190   20.2480 C   0  0  0  0  0  0  0  0  0  0  0  0
    9.0810   -0.3710   22.3990 N   0  0  0  0  0  0  0  0  0  0  0  0
    7.0730   -1.0270   21.0390 C   0  0  0  0  0  0  0  0  0  0  0  0
    7.8200   -3.5760   24.0810 C   0  0  0  0  0  0  0  0  0  0  0  0
    9.8550    0.6250   23.1920 C   0  0  0  0  0  0  0  0  0  0  0  0
    8.3120   -2.0980   24.0620 C   0  0  0  0  0  0  0  0  0  0  0  0
   12.9720   -1.5560   24.0590 C   0  0  0  0  0  0  0  0  0  0  0  0
   11.3160    0.2460   23.4610 C   0  0  0  0  0  0  0  0  0  0  0  0
   10.7170   -2.1580   23.0290 C   0  0  0  0  0  0  0  0  0  0  0  0
    9.2350   -1.7820   22.8380 C   0  0  0  0  0  0  0  0  0  0  0  0
   11.4700   -1.1960   23.9710 C   0  0  0  0  0  0  0  0  0  0  0  0
   13.5860   -0.7060   24.8880 F   0  0  0  0  0  0  0  0  0  0  0  0
   13.5910   -1.4810   22.8590 F   0  0  0  0  0  0  0  0  0  0  0  0
   13.1550   -2.7970   24.5540 F   0  0  0  0  0  0  0  0  0  0  0  0
    7.5800   -0.9550   18.4250 H   0  0  0  0  0  0  0  0  0  0  0  0
    1.7590    2.3830   20.8400 H   0  0  0  0  0  0  0  0  0  0  0  0
    2.8690    1.2610   22.7540 H   0  0  0  0  0  0  0  0  0  0  0  0
    4.4080    1.2160   17.0290 H   0  0  0  0  0  0  0  0  0  0  0  0
    2.5950    2.0020   18.5490 H   0  0  0  0  0  0  0  0  0  0  0  0
    4.8850   -0.1210   22.4020 H   0  0  0  0  0  0  0  0  0  0  0  0
    7.7900   -1.6870   20.5450 H   0  0  0  0  0  0  0  0  0  0  0  0
    6.4990   -1.6620   21.7190 H   0  0  0  0  0  0  0  0  0  0  0  0
    6.7300   -3.6220   23.9260 H   0  0  0  0  0  0  0  0  0  0  0  0
    8.0370   -4.0570   25.0460 H   0  0  0  0  0  0  0  0  0  0  0  0
    8.2920   -4.1680   23.2840 H   0  0  0  0  0  0  0  0  0  0  0  0
    9.3700    0.7130   24.1690 H   0  0  0  0  0  0  0  0  0  0  0  0
    9.8500    1.6090   22.7010 H   0  0  0  0  0  0  0  0  0  0  0  0
    7.4170   -1.4660   23.9950 H   0  0  0  0  0  0  0  0  0  0  0  0
    8.7810   -1.8240   25.0160 H   0  0  0  0  0  0  0  0  0  0  0  0
   11.9090    0.3730   22.5560 H   0  0  0  0  0  0  0  0  0  0  0  0
   11.7460    0.9410   24.1870 H   0  0  0  0  0  0  0  0  0  0  0  0
   11.1870   -2.1180   22.0400 H   0  0  0  0  0  0  0  0  0  0  0  0
   10.8160   -3.1970   23.3650 H   0  0  0  0  0  0  0  0  0  0  0  0
    8.9070   -2.4420   22.0370 H   0  0  0  0  0  0  0  0  0  0  0  0
   11.0340   -1.2510   24.9780 H   0  0  0  0  0  0  0  0  0  0  0  0
  3  1  2  0
  4  2  2  0
  6  5  1  0
  7  2  1  0
  8  5  2  0
  9  6  2  0
 10  4  1  0
 11  7  2  0
 11  8  1  0
 12  9  1  0
 12 10  2  0
 12 11  1  0
 13  3  1  0
 14  3  1  0
 14 10  1  0
 16 13  1  0
 17 15  1  0
 19 16  1  0
 21 13  1  0
 21 17  1  0
 21 20  1  0
 22 18  1  0
 22 19  1  0
 22 20  1  0
 23 18  1  0
 24 18  1  0
 25 18  1  0
  4 26  1  0
  5 27  1  0
  6 28  1  0
  7 29  1  0
  8 30  1  0
  9 31  1  0
 14 32  1  0
 14 33  1  0
 15 34  1  0
 15 35  1  0
 15 36  1  0
 16 37  1  0
 16 38  1  0
 17 39  1  0
 17 40  1  0
 19 41  1  0
 19 42  1  0
 20 43  1  0
 20 44  1  0
 21 45  1  0
 22 46  1  0
M  END
>  <Favorite_cresset>
false

>  <Protein_cresset>
sars_P

>  <MW_cresset>
350.4

>  <#Atoms_cresset>
25

>  <SlogP_cresset>
4.4

>  <TPSA_cresset>
33.2

>  <Flexibility_cresset>
4.2

>  <HBA_cresset>
3

>  <HBD_cresset>
0

>  <Rof5_cresset>
0

>  <Confs_cresset>
0

>  <Poses_cresset>
0

$$$$
predicted (28)
  xed2sdf           3D
 
 69 74  0  0  1  0  0  0  0  0999 V2000
   13.7470   -2.3800   23.4490 Cl  0  0  0  0  0  0  0  0  0  0  0  0
   10.2180    3.3980   23.8900 O   0  0  0  0  0  0  0  0  0  0  0  0
    8.6120    1.3030   21.4890 O   0  0  0  0  0  0  0  0  0  0  0  0
    6.0220   -0.2280   17.9080 N   0  0  0  0  0  0  0  0  0  0  0  0
    3.8550   -4.3020   27.1020 O   0  0  0  0  0  0  0  0  0  0  0  0
    7.0470   -2.4250   24.9030 O   0  0  0  0  0  0  0  0  0  0  0  0
    9.8780    2.2300   23.9770 C   0  0  0  0  0  0  0  0  0  0  0  0
    8.2770    0.2340   21.9340 C   0  0  0  0  0  0  0  0  0  0  0  0
    6.7730   -0.5630   18.9770 C   0  0  0  0  0  0  0  0  0  0  0  0
   13.1390    0.2830   23.6430 C   0  0  0  0  0  0  0  0  0  0  0  0
   12.2340    1.3420   23.8020 C   0  0  0  0  0  0  0  0  0  0  0  0
   11.2830   -1.2500   23.3010 C   0  0  0  0  0  0  0  0  0  0  0  0
    2.8290    1.9200   20.8650 C   0  0  0  0  0  0  0  0  0  0  0  0
    3.5820    1.5490   21.9880 C   0  0  0  0  0  0  0  0  0  0  0  0
   12.6540   -1.0150   23.4390 C   0  0  0  0  0  0  0  0  0  0  0  0
   10.8460    1.1060   23.7110 C   0  0  0  0  0  0  0  0  0  0  0  0
   10.3600   -0.1840   23.3840 C   0  0  0  0  0  0  0  0  0  0  0  0
    4.9060    0.4940   18.1250 C   0  0  0  0  0  0  0  0  0  0  0  0
    3.2650    1.5760   19.5770 C   0  0  0  0  0  0  0  0  0  0  0  0
    4.7980    0.8640   21.8170 C   0  0  0  0  0  0  0  0  0  0  0  0
    6.4510   -0.1920   20.2910 C   0  0  0  0  0  0  0  0  0  0  0  0
    4.4680    0.8710   19.4050 C   0  0  0  0  0  0  0  0  0  0  0  0
    5.2500    0.5180   20.5240 C   0  0  0  0  0  0  0  0  0  0  0  0
    7.3140   -0.5600   21.3500 N   0  0  0  0  0  0  0  0  0  0  0  0
    8.5710    1.8480   24.3050 N   0  0  0  0  0  0  0  0  0  0  0  0
    5.0470   -3.8410   27.8270 C   0  0  0  0  0  0  0  0  0  0  0  0
    4.3030   -3.6500   25.8640 C   0  0  0  0  0  0  0  0  0  0  0  0
    6.8910   -3.1020   26.1590 C   0  0  0  0  0  0  0  0  0  0  0  0
    7.5660    2.8870   24.6130 C   0  0  0  0  0  0  0  0  0  0  0  0
    5.4370   -2.8980   26.6470 C   0  0  0  0  0  0  0  0  0  0  0  0
    8.2090   -2.8250   24.1560 C   0  0  0  0  0  0  0  0  0  0  0  0
    7.1290   -1.8020   22.0560 C   0  0  0  0  0  0  0  0  0  0  0  0
    8.1650    0.4080   24.3610 C   0  0  0  0  0  0  0  0  0  0  0  0
    5.9490    5.6430   22.5230 C   0  0  0  0  0  0  0  0  0  0  0  0
    7.0620    3.5980   23.3320 C   0  0  0  0  0  0  0  0  0  0  0  0
    8.3690   -1.8780   22.9550 C   0  0  0  0  0  0  0  0  0  0  0  0
    8.8350   -0.3890   23.2140 C   0  0  0  0  0  0  0  0  0  0  0  0
    6.2690    4.7860   23.6680 N   0  0  0  0  0  0  0  0  0  0  0  0
    5.1370   -1.5880   26.8780 F   0  0  0  0  0  0  0  0  0  0  0  0
    7.6820   -1.1250   18.7710 H   0  0  0  0  0  0  0  0  0  0  0  0
   14.2080    0.4670   23.7080 H   0  0  0  0  0  0  0  0  0  0  0  0
   12.6070    2.3420   24.0070 H   0  0  0  0  0  0  0  0  0  0  0  0
   10.9730   -2.2790   23.1590 H   0  0  0  0  0  0  0  0  0  0  0  0
    1.9010    2.4650   20.9960 H   0  0  0  0  0  0  0  0  0  0  0  0
    3.2230    1.8010   22.9850 H   0  0  0  0  0  0  0  0  0  0  0  0
    4.3610    0.7970   17.2400 H   0  0  0  0  0  0  0  0  0  0  0  0
    2.6770    1.8690   18.7130 H   0  0  0  0  0  0  0  0  0  0  0  0
    5.3670    0.5940   22.6990 H   0  0  0  0  0  0  0  0  0  0  0  0
    4.7850   -3.3240   28.7570 H   0  0  0  0  0  0  0  0  0  0  0  0
    5.7510   -4.6620   28.0070 H   0  0  0  0  0  0  0  0  0  0  0  0
    3.5140   -3.0030   25.4620 H   0  0  0  0  0  0  0  0  0  0  0  0
    4.6320   -4.3830   25.1170 H   0  0  0  0  0  0  0  0  0  0  0  0
    7.5770   -2.6640   26.8950 H   0  0  0  0  0  0  0  0  0  0  0  0
    7.1100   -4.1750   26.0670 H   0  0  0  0  0  0  0  0  0  0  0  0
    8.0200    3.6250   25.2900 H   0  0  0  0  0  0  0  0  0  0  0  0
    6.7120    2.4380   25.1350 H   0  0  0  0  0  0  0  0  0  0  0  0
    9.1220   -2.8220   24.7680 H   0  0  0  0  0  0  0  0  0  0  0  0
    8.0670   -3.8460   23.7740 H   0  0  0  0  0  0  0  0  0  0  0  0
    6.2050   -1.7300   22.6420 H   0  0  0  0  0  0  0  0  0  0  0  0
    7.0910   -2.6500   21.3550 H   0  0  0  0  0  0  0  0  0  0  0  0
    7.0770    0.3150   24.2910 H   0  0  0  0  0  0  0  0  0  0  0  0
    8.4960   -0.0140   25.3150 H   0  0  0  0  0  0  0  0  0  0  0  0
    4.8640    5.6680   22.3730 H   0  0  0  0  0  0  0  0  0  0  0  0
    6.4280    5.2740   21.6080 H   0  0  0  0  0  0  0  0  0  0  0  0
    6.2910    6.6660   22.7180 H   0  0  0  0  0  0  0  0  0  0  0  0
    7.9190    3.8900   22.7090 H   0  0  0  0  0  0  0  0  0  0  0  0
    6.4520    2.9040   22.7480 H   0  0  0  0  0  0  0  0  0  0  0  0
    9.1040   -2.3360   22.2840 H   0  0  0  0  0  0  0  0  0  0  0  0
    5.4050    4.4890   24.1150 H   0  0  0  0  0  0  0  0  0  0  0  0
  7  2  2  0
  8  3  2  0
  9  4  2  0
 11 10  1  0
 14 13  1  0
 15  1  1  0
 15 10  2  0
 15 12  1  0
 16  7  1  0
 16 11  2  0
 17 12  2  0
 17 16  1  0
 18  4  1  0
 19 13  2  0
 20 14  2  0
 21  9  1  0
 22 18  2  0
 22 19  1  0
 23 20  1  0
 23 21  2  0
 23 22  1  0
 24  8  1  0
 24 21  1  0
 25  7  1  0
 26  5  1  0
 27  5  1  0
 28  6  1  0
 29 25  1  0
 30 26  1  0
 30 27  1  0
 30 28  1  0
 31  6  1  0
 32 24  1  0
 33 25  1  0
 35 29  1  0
 36 31  1  0
 36 32  1  0
 37  8  1  0
 37 17  1  0
 37 33  1  0
 37 36  1  0
 38 34  1  0
 38 35  1  0
 39 30  1  0
  9 40  1  0
 10 41  1  0
 11 42  1  0
 12 43  1  0
 13 44  1  0
 14 45  1  0
 18 46  1  0
 19 47  1  0
 20 48  1  0
 26 49  1  0
 26 50  1  0
 27 51  1  0
 27 52  1  0
 28 53  1  0
 28 54  1  0
 29 55  1  0
 29 56  1  0
 31 57  1  0
 31 58  1  0
 32 59  1  0
 32 60  1  0
 33 61  1  0
 33 62  1  0
 34 63  1  0
 34 64  1  0
 34 65  1  0
 35 66  1  0
 35 67  1  0
 36 68  1  0
 38 69  1  0
M  END
>  <Favorite_cresset>
false

>  <Protein_cresset>
sars_P

>  <MW_cresset>
553.0

>  <#Atoms_cresset>
39

>  <SlogP_cresset>
3.2

>  <TPSA_cresset>
84.0

>  <Flexibility_cresset>
7.9

>  <HBA_cresset>
8

>  <HBD_cresset>
1

>  <Rof5_cresset>
1

>  <Confs_cresset>
0

>  <Poses_cresset>
0

$$$$
predicted (29)
  xed2sdf           3D
 
 66 71  0  0  1  0  0  0  0  0999 V2000
   13.7970   -2.1420   23.1430 Cl  0  0  0  0  0  0  0  0  0  0  0  0
   10.2320    3.5590   23.8780 O   0  0  0  0  0  0  0  0  0  0  0  0
    8.4290    1.4350   21.4170 O   0  0  0  0  0  0  0  0  0  0  0  0
    4.9780   -6.5310   24.3920 N   0  0  0  0  0  0  0  0  0  0  0  0
    6.9110   -5.7980   23.1620 N   0  0  0  0  0  0  0  0  0  0  0  0
    6.3180   -4.7110   25.2220 N   0  0  0  0  0  0  0  0  0  0  0  0
    6.0790   -0.1650   17.8290 N   0  0  0  0  0  0  0  0  0  0  0  0
    9.8750    2.3880   23.8930 C   0  0  0  0  0  0  0  0  0  0  0  0
    8.2160    0.3250   21.8370 C   0  0  0  0  0  0  0  0  0  0  0  0
    5.8290   -6.5880   23.3420 C   0  0  0  0  0  0  0  0  0  0  0  0
    5.2700   -5.5690   25.2990 C   0  0  0  0  0  0  0  0  0  0  0  0
    7.1070   -4.8730   24.1310 C   0  0  0  0  0  0  0  0  0  0  0  0
    6.7830   -0.5280   18.9200 C   0  0  0  0  0  0  0  0  0  0  0  0
   13.1310    0.4930   23.4850 C   0  0  0  0  0  0  0  0  0  0  0  0
   12.2040    1.5200   23.6850 C   0  0  0  0  0  0  0  0  0  0  0  0
   11.3050   -1.0670   23.1220 C   0  0  0  0  0  0  0  0  0  0  0  0
    2.8040    1.9730   20.7210 C   0  0  0  0  0  0  0  0  0  0  0  0
    3.5500    1.6070   21.8480 C   0  0  0  0  0  0  0  0  0  0  0  0
   12.6740   -0.8080   23.2450 C   0  0  0  0  0  0  0  0  0  0  0  0
   10.8270    1.2680   23.5790 C   0  0  0  0  0  0  0  0  0  0  0  0
   10.3580   -0.0250   23.2300 C   0  0  0  0  0  0  0  0  0  0  0  0
    4.9570    0.5590   18.0150 C   0  0  0  0  0  0  0  0  0  0  0  0
    3.2660    1.6190   19.4450 C   0  0  0  0  0  0  0  0  0  0  0  0
    4.7470    0.8860   21.7070 C   0  0  0  0  0  0  0  0  0  0  0  0
    6.4090   -0.1850   20.2270 C   0  0  0  0  0  0  0  0  0  0  0  0
    4.4720    0.9140   19.2900 C   0  0  0  0  0  0  0  0  0  0  0  0
    5.2160    0.5400   20.4250 C   0  0  0  0  0  0  0  0  0  0  0  0
    8.2050   -4.0170   23.9620 N   0  0  0  0  0  0  0  0  0  0  0  0
    7.2720   -0.5160   21.3020 N   0  0  0  0  0  0  0  0  0  0  0  0
    8.5660    2.0030   24.1770 N   0  0  0  0  0  0  0  0  0  0  0  0
    7.5310    3.0330   24.4180 C   0  0  0  0  0  0  0  0  0  0  0  0
    8.2110   -2.5710   24.3010 C   0  0  0  0  0  0  0  0  0  0  0  0
    7.1300   -1.7320   22.0820 C   0  0  0  0  0  0  0  0  0  0  0  0
    8.1820    0.5610   24.2560 C   0  0  0  0  0  0  0  0  0  0  0  0
    6.1390    5.7970   22.1150 C   0  0  0  0  0  0  0  0  0  0  0  0
    7.0230    3.6920   23.0990 C   0  0  0  0  0  0  0  0  0  0  0  0
    8.3740   -1.7540   22.9870 C   0  0  0  0  0  0  0  0  0  0  0  0
    8.8340   -0.2540   23.1110 C   0  0  0  0  0  0  0  0  0  0  0  0
    6.3440    4.9850   23.3350 N   0  0  0  0  0  0  0  0  0  0  0  0
    5.5750   -7.2760   22.5350 H   0  0  0  0  0  0  0  0  0  0  0  0
    4.5860   -5.4610   26.1520 H   0  0  0  0  0  0  0  0  0  0  0  0
    7.6990   -1.0890   18.7470 H   0  0  0  0  0  0  0  0  0  0  0  0
   14.1930    0.7030   23.5610 H   0  0  0  0  0  0  0  0  0  0  0  0
   12.5470    2.5140   23.9540 H   0  0  0  0  0  0  0  0  0  0  0  0
   11.0080   -2.1000   23.0000 H   0  0  0  0  0  0  0  0  0  0  0  0
    1.8650    2.5120   20.8350 H   0  0  0  0  0  0  0  0  0  0  0  0
    3.1880    1.8640   22.8370 H   0  0  0  0  0  0  0  0  0  0  0  0
    4.4590    0.8900   17.1100 H   0  0  0  0  0  0  0  0  0  0  0  0
    2.6680    1.8710   18.5830 H   0  0  0  0  0  0  0  0  0  0  0  0
    5.2880    0.5830   22.5980 H   0  0  0  0  0  0  0  0  0  0  0  0
    8.8260   -4.2570   23.1990 H   0  0  0  0  0  0  0  0  0  0  0  0
    7.9720    3.8160   25.0460 H   0  0  0  0  0  0  0  0  0  0  0  0
    6.6960    2.5860   24.9720 H   0  0  0  0  0  0  0  0  0  0  0  0
    7.2870   -2.2660   24.8100 H   0  0  0  0  0  0  0  0  0  0  0  0
    9.0560   -2.3770   24.9770 H   0  0  0  0  0  0  0  0  0  0  0  0
    6.2290   -1.6490   22.6950 H   0  0  0  0  0  0  0  0  0  0  0  0
    7.0710   -2.6120   21.4270 H   0  0  0  0  0  0  0  0  0  0  0  0
    7.0930    0.4660   24.1690 H   0  0  0  0  0  0  0  0  0  0  0  0
    8.5240    0.1680   25.2240 H   0  0  0  0  0  0  0  0  0  0  0  0
    5.0690    5.8700   21.8790 H   0  0  0  0  0  0  0  0  0  0  0  0
    6.6580    5.3550   21.2530 H   0  0  0  0  0  0  0  0  0  0  0  0
    6.5250    6.8140   22.2630 H   0  0  0  0  0  0  0  0  0  0  0  0
    7.8900    3.8800   22.4520 H   0  0  0  0  0  0  0  0  0  0  0  0
    6.3460    3.0080   22.5720 H   0  0  0  0  0  0  0  0  0  0  0  0
    9.0920   -2.2840   22.3580 H   0  0  0  0  0  0  0  0  0  0  0  0
    5.4480    4.8340   23.7980 H   0  0  0  0  0  0  0  0  0  0  0  0
  8  2  2  0
  9  3  2  0
 10  4  2  0
 10  5  1  0
 11  4  1  0
 11  6  2  0
 12  5  2  0
 12  6  1  0
 13  7  2  0
 15 14  1  0
 18 17  1  0
 19  1  1  0
 19 14  2  0
 19 16  1  0
 20  8  1  0
 20 15  2  0
 21 16  2  0
 21 20  1  0
 22  7  1  0
 23 17  2  0
 24 18  2  0
 25 13  1  0
 26 22  2  0
 26 23  1  0
 27 24  1  0
 27 25  2  0
 27 26  1  0
 28 12  1  0
 29  9  1  0
 29 25  1  0
 30  8  1  0
 31 30  1  0
 32 28  1  0
 33 29  1  0
 34 30  1  0
 36 31  1  0
 37 32  1  0
 37 33  1  0
 38  9  1  0
 38 21  1  0
 38 34  1  0
 38 37  1  0
 39 35  1  0
 39 36  1  0
 10 40  1  0
 11 41  1  0
 13 42  1  0
 14 43  1  0
 15 44  1  0
 16 45  1  0
 17 46  1  0
 18 47  1  0
 22 48  1  0
 23 49  1  0
 24 50  1  0
 28 51  1  0
 31 52  1  0
 31 53  1  0
 32 54  1  0
 32 55  1  0
 33 56  1  0
 33 57  1  0
 34 58  1  0
 34 59  1  0
 35 60  1  0
 35 61  1  0
 35 62  1  0
 36 63  1  0
 36 64  1  0
 37 65  1  0
 39 66  1  0
M  END
>  <Favorite_cresset>
false

>  <Protein_cresset>
sars_P

>  <MW_cresset>
543.0

>  <#Atoms_cresset>
39

>  <SlogP_cresset>
2.8

>  <TPSA_cresset>
116.2

>  <Flexibility_cresset>
6.1

>  <HBA_cresset>
10

>  <HBD_cresset>
2

>  <Rof5_cresset>
1

>  <Confs_cresset>
0

>  <Poses_cresset>
0

$$$$
predicted (30)
  xed2sdf           3D
 
 66 71  0  0  1  0  0  0  0  0999 V2000
   13.7690   -2.2860   23.4460 Cl  0  0  0  0  0  0  0  0  0  0  0  0
   10.2670    3.5120   23.7720 O   0  0  0  0  0  0  0  0  0  0  0  0
    5.4380    2.6060   24.4840 O   0  0  0  0  0  0  0  0  0  0  0  0
    8.3860    1.5470   21.5440 O   0  0  0  0  0  0  0  0  0  0  0  0
    6.1120   -0.0490   17.7860 N   0  0  0  0  0  0  0  0  0  0  0  0
    9.9300    2.3410   23.8650 C   0  0  0  0  0  0  0  0  0  0  0  0
    6.4970    3.1600   24.2320 C   0  0  0  0  0  0  0  0  0  0  0  0
    8.2140    0.4010   21.8870 C   0  0  0  0  0  0  0  0  0  0  0  0
    6.8400   -0.4200   18.8570 C   0  0  0  0  0  0  0  0  0  0  0  0
    7.9760   -6.6710   23.8450 C   0  0  0  0  0  0  0  0  0  0  0  0
    6.9170   -5.9780   23.2440 C   0  0  0  0  0  0  0  0  0  0  0  0
    8.9340   -5.9840   24.6040 C   0  0  0  0  0  0  0  0  0  0  0  0
   13.1520    0.3790   23.5260 C   0  0  0  0  0  0  0  0  0  0  0  0
   12.2470    1.4410   23.5980 C   0  0  0  0  0  0  0  0  0  0  0  0
    6.8080   -4.5890   23.4170 C   0  0  0  0  0  0  0  0  0  0  0  0
    8.8490   -4.5950   24.7410 C   0  0  0  0  0  0  0  0  0  0  0  0
   11.2830   -1.1630   23.2970 C   0  0  0  0  0  0  0  0  0  0  0  0
    2.7690    1.8420   20.7650 C   0  0  0  0  0  0  0  0  0  0  0  0
    3.5050    1.4020   21.8700 C   0  0  0  0  0  0  0  0  0  0  0  0
   12.6610   -0.9280   23.4230 C   0  0  0  0  0  0  0  0  0  0  0  0
   10.8630    1.2180   23.5020 C   0  0  0  0  0  0  0  0  0  0  0  0
    7.7760   -3.8900   24.1710 C   0  0  0  0  0  0  0  0  0  0  0  0
   10.3600   -0.0820   23.2590 C   0  0  0  0  0  0  0  0  0  0  0  0
    4.9860    0.6600   18.0020 C   0  0  0  0  0  0  0  0  0  0  0  0
    3.2530    1.6000   19.4750 C   0  0  0  0  0  0  0  0  0  0  0  0
    4.7380    0.7560   21.6960 C   0  0  0  0  0  0  0  0  0  0  0  0
    6.4740   -0.1090   20.1720 C   0  0  0  0  0  0  0  0  0  0  0  0
    4.4860    0.9510   19.2860 C   0  0  0  0  0  0  0  0  0  0  0  0
    5.2410    0.5410   20.4010 C   0  0  0  0  0  0  0  0  0  0  0  0
    6.6530    4.0520   23.1820 N   0  0  0  0  0  0  0  0  0  0  0  0
    7.3580   -0.4520   21.2280 N   0  0  0  0  0  0  0  0  0  0  0  0
    8.6810    1.9490   24.3570 N   0  0  0  0  0  0  0  0  0  0  0  0
    5.6070    4.4070   22.2200 C   0  0  0  0  0  0  0  0  0  0  0  0
    7.7830    2.9020   25.0370 C   0  0  0  0  0  0  0  0  0  0  0  0
    7.7380   -2.3810   24.3200 C   0  0  0  0  0  0  0  0  0  0  0  0
    7.2030   -1.6900   21.9410 C   0  0  0  0  0  0  0  0  0  0  0  0
    8.2280    0.5360   24.3490 C   0  0  0  0  0  0  0  0  0  0  0  0
    8.2850   -1.7160   23.0260 C   0  0  0  0  0  0  0  0  0  0  0  0
    8.8190   -0.2470   23.1530 C   0  0  0  0  0  0  0  0  0  0  0  0
    7.7530   -0.9850   18.6660 H   0  0  0  0  0  0  0  0  0  0  0  0
    8.0670   -7.7400   23.7150 H   0  0  0  0  0  0  0  0  0  0  0  0
    6.1770   -6.5190   22.6550 H   0  0  0  0  0  0  0  0  0  0  0  0
    9.7520   -6.5280   25.0700 H   0  0  0  0  0  0  0  0  0  0  0  0
   14.2200    0.5700   23.5970 H   0  0  0  0  0  0  0  0  0  0  0  0
   12.6250    2.4370   23.7990 H   0  0  0  0  0  0  0  0  0  0  0  0
    5.9800   -4.0630   22.9520 H   0  0  0  0  0  0  0  0  0  0  0  0
    9.6240   -4.0650   25.2870 H   0  0  0  0  0  0  0  0  0  0  0  0
   10.9660   -2.2000   23.2590 H   0  0  0  0  0  0  0  0  0  0  0  0
    1.8090    2.3340   20.9000 H   0  0  0  0  0  0  0  0  0  0  0  0
    3.1120    1.5460   22.8680 H   0  0  0  0  0  0  0  0  0  0  0  0
    4.5040    1.0370   17.1080 H   0  0  0  0  0  0  0  0  0  0  0  0
    2.6530    1.8860   18.6250 H   0  0  0  0  0  0  0  0  0  0  0  0
    5.2730    0.3970   22.5690 H   0  0  0  0  0  0  0  0  0  0  0  0
    7.5550    4.4950   23.0740 H   0  0  0  0  0  0  0  0  0  0  0  0
    4.6620    4.6140   22.7410 H   0  0  0  0  0  0  0  0  0  0  0  0
    5.4730    3.5930   21.4940 H   0  0  0  0  0  0  0  0  0  0  0  0
    5.9300    5.3030   21.6740 H   0  0  0  0  0  0  0  0  0  0  0  0
    7.5200    2.4830   26.0130 H   0  0  0  0  0  0  0  0  0  0  0  0
    8.2950    3.8600   25.1950 H   0  0  0  0  0  0  0  0  0  0  0  0
    6.7130   -2.0440   24.5310 H   0  0  0  0  0  0  0  0  0  0  0  0
    8.3330   -2.1000   25.1970 H   0  0  0  0  0  0  0  0  0  0  0  0
    6.2080   -1.7230   22.3930 H   0  0  0  0  0  0  0  0  0  0  0  0
    7.3120   -2.5410   21.2670 H   0  0  0  0  0  0  0  0  0  0  0  0
    7.1350    0.5130   24.2890 H   0  0  0  0  0  0  0  0  0  0  0  0
    8.5230    0.0690   25.2960 H   0  0  0  0  0  0  0  0  0  0  0  0
    9.0610   -2.3510   22.5890 H   0  0  0  0  0  0  0  0  0  0  0  0
  6  2  2  0
  7  3  2  0
  8  4  2  0
  9  5  2  0
 11 10  2  0
 12 10  1  0
 14 13  1  0
 15 11  1  0
 16 12  2  0
 19 18  1  0
 20  1  1  0
 20 13  2  0
 20 17  1  0
 21  6  1  0
 21 14  2  0
 22 15  2  0
 22 16  1  0
 23 17  2  0
 23 21  1  0
 24  5  1  0
 25 18  2  0
 26 19  2  0
 27  9  1  0
 28 24  2  0
 28 25  1  0
 29 26  1  0
 29 27  2  0
 29 28  1  0
 30  7  1  0
 31  8  1  0
 31 27  1  0
 32  6  1  0
 33 30  1  0
 34  7  1  0
 34 32  1  0
 35 22  1  0
 36 31  1  0
 37 32  1  0
 38 35  1  0
 38 36  1  0
 39  8  1  0
 39 23  1  0
 39 37  1  0
 39 38  1  0
  9 40  1  0
 10 41  1  0
 11 42  1  0
 12 43  1  0
 13 44  1  0
 14 45  1  0
 15 46  1  0
 16 47  1  0
 17 48  1  0
 18 49  1  0
 19 50  1  0
 24 51  1  0
 25 52  1  0
 26 53  1  0
 30 54  1  0
 33 55  1  0
 33 56  1  0
 33 57  1  0
 34 58  1  0
 34 59  1  0
 35 60  1  0
 35 61  1  0
 36 62  1  0
 36 63  1  0
 37 64  1  0
 37 65  1  0
 38 66  1  0
M  END
>  <Favorite_cresset>
false

>  <Protein_cresset>
sars_P

>  <MW_cresset>
539.0

>  <#Atoms_cresset>
39

>  <SlogP_cresset>
4.3

>  <TPSA_cresset>
82.6

>  <Flexibility_cresset>
4.9

>  <HBA_cresset>
7

>  <HBD_cresset>
1

>  <Rof5_cresset>
1

>  <Confs_cresset>
0

>  <Poses_cresset>
0

$$$$
predicted (31)
  xed2sdf           3D
 
 64 70  0  0  1  0  0  0  0  0999 V2000
   13.5120   -2.1230   22.9710 Cl  0  0  0  0  0  0  0  0  0  0  0  0
    9.9820    3.5340   24.0140 O   0  0  0  0  0  0  0  0  0  0  0  0
    8.3250    1.4540   21.6060 O   0  0  0  0  0  0  0  0  0  0  0  0
    5.0380    4.5020   22.8550 N   0  0  0  0  0  0  0  0  0  0  0  0
    5.3160    3.8300   24.0180 N   0  0  0  0  0  0  0  0  0  0  0  0
    7.8560   -7.2180   23.7150 N   0  0  0  0  0  0  0  0  0  0  0  0
    6.9640   -5.0020   23.9370 N   0  0  0  0  0  0  0  0  0  0  0  0
    6.0600   -0.1860   17.9070 N   0  0  0  0  0  0  0  0  0  0  0  0
    7.2630    4.2660   22.9650 O   0  0  0  0  0  0  0  0  0  0  0  0
    9.6160    2.3700   24.0870 C   0  0  0  0  0  0  0  0  0  0  0  0
    8.0190    0.3650   22.0520 C   0  0  0  0  0  0  0  0  0  0  0  0
    6.9400   -6.2630   23.4740 C   0  0  0  0  0  0  0  0  0  0  0  0
    6.1960    4.7260   22.2690 C   0  0  0  0  0  0  0  0  0  0  0  0
    6.6240    3.7000   24.0220 C   0  0  0  0  0  0  0  0  0  0  0  0
    8.8730   -6.8800   24.5320 C   0  0  0  0  0  0  0  0  0  0  0  0
    6.7500   -0.5340   19.0120 C   0  0  0  0  0  0  0  0  0  0  0  0
    8.0040   -4.6590   24.7280 C   0  0  0  0  0  0  0  0  0  0  0  0
    8.9970   -5.5870   25.0640 C   0  0  0  0  0  0  0  0  0  0  0  0
   12.8350    0.4730   23.5130 C   0  0  0  0  0  0  0  0  0  0  0  0
   11.9200    1.4980   23.7490 C   0  0  0  0  0  0  0  0  0  0  0  0
   10.9960   -1.0950   23.2490 C   0  0  0  0  0  0  0  0  0  0  0  0
    2.6670    1.8590   20.7350 C   0  0  0  0  0  0  0  0  0  0  0  0
    3.4000    1.5220   21.8770 C   0  0  0  0  0  0  0  0  0  0  0  0
   12.3740   -0.8270   23.2730 C   0  0  0  0  0  0  0  0  0  0  0  0
   10.5430    1.2400   23.7380 C   0  0  0  0  0  0  0  0  0  0  0  0
   10.0550   -0.0610   23.4650 C   0  0  0  0  0  0  0  0  0  0  0  0
    4.9290    0.5370   18.0660 C   0  0  0  0  0  0  0  0  0  0  0  0
    3.1790    1.5500   19.4670 C   0  0  0  0  0  0  0  0  0  0  0  0
    4.6380    0.8770   21.7540 C   0  0  0  0  0  0  0  0  0  0  0  0
    6.3570   -0.1540   20.3040 C   0  0  0  0  0  0  0  0  0  0  0  0
    4.4100    0.8860   19.3300 C   0  0  0  0  0  0  0  0  0  0  0  0
    5.1440    0.5430   20.4780 C   0  0  0  0  0  0  0  0  0  0  0  0
    8.0850   -3.3380   25.1570 N   0  0  0  0  0  0  0  0  0  0  0  0
    7.1720   -0.4900   21.4010 N   0  0  0  0  0  0  0  0  0  0  0  0
    8.3550    2.0030   24.5440 N   0  0  0  0  0  0  0  0  0  0  0  0
    7.4280    3.0020   25.0910 C   0  0  0  0  0  0  0  0  0  0  0  0
    7.2450   -2.2880   24.5750 C   0  0  0  0  0  0  0  0  0  0  0  0
    6.9330   -1.7040   22.1290 C   0  0  0  0  0  0  0  0  0  0  0  0
    7.9040    0.5980   24.5530 C   0  0  0  0  0  0  0  0  0  0  0  0
    7.9250   -1.6990   23.3010 C   0  0  0  0  0  0  0  0  0  0  0  0
    8.5180   -0.2300   23.3830 C   0  0  0  0  0  0  0  0  0  0  0  0
    6.1080   -6.5310   22.8260 H   0  0  0  0  0  0  0  0  0  0  0  0
    6.3610    5.2560   21.3420 H   0  0  0  0  0  0  0  0  0  0  0  0
    9.6300   -7.6400   24.7230 H   0  0  0  0  0  0  0  0  0  0  0  0
    7.6680   -1.1040   18.8610 H   0  0  0  0  0  0  0  0  0  0  0  0
    9.8420   -5.3050   25.6840 H   0  0  0  0  0  0  0  0  0  0  0  0
   13.8960    0.7030   23.5060 H   0  0  0  0  0  0  0  0  0  0  0  0
   12.2820    2.5030   23.9450 H   0  0  0  0  0  0  0  0  0  0  0  0
   10.6880   -2.1110   23.0560 H   0  0  0  0  0  0  0  0  0  0  0  0
    1.6970    2.3400   20.8390 H   0  0  0  0  0  0  0  0  0  0  0  0
    2.9950    1.7450   22.8590 H   0  0  0  0  0  0  0  0  0  0  0  0
    4.4450    0.8620   17.1510 H   0  0  0  0  0  0  0  0  0  0  0  0
    2.5970    1.8000   18.5940 H   0  0  0  0  0  0  0  0  0  0  0  0
    5.1750    0.6080   22.6570 H   0  0  0  0  0  0  0  0  0  0  0  0
    8.9480   -3.0570   25.6100 H   0  0  0  0  0  0  0  0  0  0  0  0
    8.0070    3.7420   25.6520 H   0  0  0  0  0  0  0  0  0  0  0  0
    6.7560    2.5160   25.8040 H   0  0  0  0  0  0  0  0  0  0  0  0
    6.2710   -2.7230   24.3210 H   0  0  0  0  0  0  0  0  0  0  0  0
    6.9950   -1.5310   25.3200 H   0  0  0  0  0  0  0  0  0  0  0  0
    5.8980   -1.6610   22.4860 H   0  0  0  0  0  0  0  0  0  0  0  0
    7.0870   -2.5850   21.4880 H   0  0  0  0  0  0  0  0  0  0  0  0
    6.8070    0.5480   24.5000 H   0  0  0  0  0  0  0  0  0  0  0  0
    8.2270    0.1740   25.5120 H   0  0  0  0  0  0  0  0  0  0  0  0
    8.6940   -2.3970   22.9660 H   0  0  0  0  0  0  0  0  0  0  0  0
  5  4  1  0
 10  2  2  0
 11  3  2  0
 12  6  2  0
 12  7  1  0
 13  4  2  0
 13  9  1  0
 14  5  2  0
 14  9  1  0
 15  6  1  0
 16  8  2  0
 17  7  2  0
 18 15  2  0
 18 17  1  0
 20 19  1  0
 23 22  1  0
 24  1  1  0
 24 19  2  0
 24 21  1  0
 25 10  1  0
 25 20  2  0
 26 21  2  0
 26 25  1  0
 27  8  1  0
 28 22  2  0
 29 23  2  0
 30 16  1  0
 31 27  2  0
 31 28  1  0
 32 29  1  0
 32 30  2  0
 32 31  1  0
 33 17  1  0
 34 11  1  0
 34 30  1  0
 35 10  1  0
 36 14  1  0
 36 35  1  0
 37 33  1  0
 38 34  1  0
 39 35  1  0
 40 37  1  0
 40 38  1  0
 41 11  1  0
 41 26  1  0
 41 39  1  0
 41 40  1  0
 12 42  1  0
 13 43  1  0
 15 44  1  0
 16 45  1  0
 18 46  1  0
 19 47  1  0
 20 48  1  0
 21 49  1  0
 22 50  1  0
 23 51  1  0
 27 52  1  0
 28 53  1  0
 29 54  1  0
 33 55  1  0
 36 56  1  0
 36 57  1  0
 37 58  1  0
 37 59  1  0
 38 60  1  0
 38 61  1  0
 39 62  1  0
 39 63  1  0
 40 64  1  0
M  END
>  <Favorite_cresset>
false

>  <Protein_cresset>
sars_P

>  <MW_cresset>
567.0

>  <#Atoms_cresset>
41

>  <SlogP_cresset>
3.2

>  <TPSA_cresset>
130.2

>  <Flexibility_cresset>
5.1

>  <HBA_cresset>
11

>  <HBD_cresset>
1

>  <Rof5_cresset>
2

>  <Confs_cresset>
0

>  <Poses_cresset>
0

$$$$
predicted (32)
  xed2sdf           3D
 
 71 76  0  0  1  0  0  0  0  0999 V2000
  -14.0830   -3.1300  -21.7920 Cl  0  0  0  0  0  0  0  0  0  0  0  0
  -10.5700    1.9690  -24.3040 O   0  0  0  0  0  0  0  0  0  0  0  0
   -9.0480   -0.0240  -21.2630 O   0  0  0  0  0  0  0  0  0  0  0  0
   -6.3450   -0.5040  -18.0620 N   0  0  0  0  0  0  0  0  0  0  0  0
   -5.0770    5.7430  -23.8200 O   0  0  0  0  0  0  0  0  0  0  0  0
  -10.1920    0.8170  -24.1600 C   0  0  0  0  0  0  0  0  0  0  0  0
   -8.5260   -0.9540  -21.8460 C   0  0  0  0  0  0  0  0  0  0  0  0
   -6.9720   -1.0810  -19.1070 C   0  0  0  0  0  0  0  0  0  0  0  0
  -13.4210   -0.8850  -23.1300 C   0  0  0  0  0  0  0  0  0  0  0  0
  -12.5140    0.0230  -23.6730 C   0  0  0  0  0  0  0  0  0  0  0  0
  -11.5690   -2.3920  -22.6030 C   0  0  0  0  0  0  0  0  0  0  0  0
   -2.8880    1.1240  -21.0310 C   0  0  0  0  0  0  0  0  0  0  0  0
   -3.5270    0.5230  -22.1260 C   0  0  0  0  0  0  0  0  0  0  0  0
  -12.9460   -2.0820  -22.5850 C   0  0  0  0  0  0  0  0  0  0  0  0
  -11.1320   -0.2530  -23.6720 C   0  0  0  0  0  0  0  0  0  0  0  0
  -10.6360   -1.4770  -23.1510 C   0  0  0  0  0  0  0  0  0  0  0  0
   -5.1980    0.1650  -18.2840 C   0  0  0  0  0  0  0  0  0  0  0  0
   -3.4360    0.9900  -19.7470 C   0  0  0  0  0  0  0  0  0  0  0  0
   -4.6980   -0.2300  -21.9300 C   0  0  0  0  0  0  0  0  0  0  0  0
   -6.4950   -1.0380  -20.4210 C   0  0  0  0  0  0  0  0  0  0  0  0
   -4.6250    0.2640  -19.5560 C   0  0  0  0  0  0  0  0  0  0  0  0
   -5.2730   -0.3550  -20.6490 C   0  0  0  0  0  0  0  0  0  0  0  0
   -7.3360   -1.5370  -21.4630 N   0  0  0  0  0  0  0  0  0  0  0  0
   -8.8770    0.4370  -24.3950 N   0  0  0  0  0  0  0  0  0  0  0  0
   -5.9220    6.6300  -21.7640 C   0  0  0  0  0  0  0  0  0  0  0  0
   -7.5130    6.2390  -23.7090 C   0  0  0  0  0  0  0  0  0  0  0  0
   -5.0640    4.8800  -24.9860 C   0  0  0  0  0  0  0  0  0  0  0  0
   -7.8630    1.4370  -24.7690 C   0  0  0  0  0  0  0  0  0  0  0  0
   -6.2540    5.6990  -22.9620 C   0  0  0  0  0  0  0  0  0  0  0  0
   -8.2340   -3.9970  -24.1380 C   0  0  0  0  0  0  0  0  0  0  0  0
   -7.1380   -2.8200  -22.1410 C   0  0  0  0  0  0  0  0  0  0  0  0
   -8.4430   -0.9680  -24.3010 C   0  0  0  0  0  0  0  0  0  0  0  0
   -5.3800    3.4180  -24.5750 C   0  0  0  0  0  0  0  0  0  0  0  0
   -7.1360    1.9870  -23.5090 C   0  0  0  0  0  0  0  0  0  0  0  0
   -6.4610    4.2080  -22.5270 C   0  0  0  0  0  0  0  0  0  0  0  0
   -8.4760   -3.1070  -22.8800 C   0  0  0  0  0  0  0  0  0  0  0  0
   -9.0900   -1.6650  -23.0820 C   0  0  0  0  0  0  0  0  0  0  0  0
   -6.5900    3.3460  -23.7280 N   0  0  0  0  0  0  0  0  0  0  0  0
   -7.9040   -1.5960  -18.8970 H   0  0  0  0  0  0  0  0  0  0  0  0
  -14.4800   -0.6370  -23.0940 H   0  0  0  0  0  0  0  0  0  0  0  0
  -12.8860    0.9730  -24.0480 H   0  0  0  0  0  0  0  0  0  0  0  0
  -11.2390   -3.3160  -22.1430 H   0  0  0  0  0  0  0  0  0  0  0  0
   -1.9770    1.6990  -21.1730 H   0  0  0  0  0  0  0  0  0  0  0  0
   -3.1110    0.6320  -23.1290 H   0  0  0  0  0  0  0  0  0  0  0  0
   -4.7480    0.6800  -17.4330 H   0  0  0  0  0  0  0  0  0  0  0  0
   -2.9340    1.4550  -18.9040 H   0  0  0  0  0  0  0  0  0  0  0  0
   -5.1620   -0.7060  -22.7820 H   0  0  0  0  0  0  0  0  0  0  0  0
   -4.9160    6.4110  -21.3930 H   0  0  0  0  0  0  0  0  0  0  0  0
   -6.6290    6.5060  -20.9330 H   0  0  0  0  0  0  0  0  0  0  0  0
   -5.9100    7.6890  -22.0620 H   0  0  0  0  0  0  0  0  0  0  0  0
   -8.4290    5.9420  -23.1770 H   0  0  0  0  0  0  0  0  0  0  0  0
   -7.5910    5.8400  -24.7270 H   0  0  0  0  0  0  0  0  0  0  0  0
   -7.4970    7.3350  -23.7710 H   0  0  0  0  0  0  0  0  0  0  0  0
   -4.0710    4.9240  -25.4530 H   0  0  0  0  0  0  0  0  0  0  0  0
   -5.7990    5.2080  -25.7300 H   0  0  0  0  0  0  0  0  0  0  0  0
   -8.3630    2.2530  -25.3050 H   0  0  0  0  0  0  0  0  0  0  0  0
   -7.1550    0.9880  -25.4750 H   0  0  0  0  0  0  0  0  0  0  0  0
   -7.1910   -3.9030  -24.4770 H   0  0  0  0  0  0  0  0  0  0  0  0
   -8.8920   -3.7330  -24.9790 H   0  0  0  0  0  0  0  0  0  0  0  0
   -8.3950   -5.0570  -23.8760 H   0  0  0  0  0  0  0  0  0  0  0  0
   -6.3240   -2.7100  -22.8690 H   0  0  0  0  0  0  0  0  0  0  0  0
   -6.8980   -3.6130  -21.4230 H   0  0  0  0  0  0  0  0  0  0  0  0
   -7.3500   -1.0040  -24.2020 H   0  0  0  0  0  0  0  0  0  0  0  0
   -8.7260   -1.4990  -25.2180 H   0  0  0  0  0  0  0  0  0  0  0  0
   -4.5190    2.9850  -24.0510 H   0  0  0  0  0  0  0  0  0  0  0  0
   -5.5180    2.8370  -25.4890 H   0  0  0  0  0  0  0  0  0  0  0  0
   -7.8620    2.0190  -22.6880 H   0  0  0  0  0  0  0  0  0  0  0  0
   -6.3480    1.2860  -23.2140 H   0  0  0  0  0  0  0  0  0  0  0  0
   -5.6210    3.8740  -21.9070 H   0  0  0  0  0  0  0  0  0  0  0  0
   -7.3620    4.1290  -21.9110 H   0  0  0  0  0  0  0  0  0  0  0  0
   -9.1020   -3.6700  -22.1800 H   0  0  0  0  0  0  0  0  0  0  0  0
  6  2  2  0
  7  3  2  0
  8  4  2  0
 10  9  1  0
 13 12  1  0
 14  1  1  0
 14  9  2  0
 14 11  1  0
 15  6  1  0
 15 10  2  0
 16 11  2  0
 16 15  1  0
 17  4  1  0
 18 12  2  0
 19 13  2  0
 20  8  1  0
 21 17  2  0
 21 18  1  0
 22 19  1  0
 22 20  2  0
 22 21  1  0
 23  7  1  0
 23 20  1  0
 24  6  1  0
 27  5  1  0
 28 24  1  0
 29  5  1  0
 29 25  1  0
 29 26  1  0
 31 23  1  0
 32 24  1  0
 33 27  1  0
 34 28  1  0
 35 29  1  0
 36 30  1  0
 36 31  1  0
 37  7  1  0
 37 16  1  0
 37 32  1  0
 37 36  1  0
 38 33  1  0
 38 34  1  0
 38 35  1  0
  8 39  1  0
  9 40  1  0
 10 41  1  0
 11 42  1  0
 12 43  1  0
 13 44  1  0
 17 45  1  0
 18 46  1  0
 19 47  1  0
 25 48  1  0
 25 49  1  0
 25 50  1  0
 26 51  1  0
 26 52  1  0
 26 53  1  0
 27 54  1  0
 27 55  1  0
 28 56  1  0
 28 57  1  0
 30 58  1  0
 30 59  1  0
 30 60  1  0
 31 61  1  0
 31 62  1  0
 32 63  1  0
 32 64  1  0
 33 65  1  0
 33 66  1  0
 34 67  1  0
 34 68  1  0
 35 69  1  0
 35 70  1  0
 36 71  1  0
M  END
>  <Favorite_cresset>
false

>  <Protein_cresset>
sars_P

>  <MW_cresset>
533.1

>  <#Atoms_cresset>
38

>  <SlogP_cresset>
4.4

>  <TPSA_cresset>
66.0

>  <Flexibility_cresset>
4.8

>  <HBA_cresset>
7

>  <HBD_cresset>
0

>  <Rof5_cresset>
1

>  <Confs_cresset>
0

>  <Poses_cresset>
0

$$$$
predicted (33)
  xed2sdf           3D
 
 44 47  0  0  1  0  0  0  0  0999 V2000
   -8.5510   -0.3770  -21.3080 O   0  0  0  0  0  0  0  0  0  0  0  0
   -6.1380   -0.3170  -18.0320 N   0  0  0  0  0  0  0  0  0  0  0  0
   -7.9930   -1.2880  -21.9010 C   0  0  0  0  0  0  0  0  0  0  0  0
   -6.6060   -1.0980  -19.0200 C   0  0  0  0  0  0  0  0  0  0  0  0
  -12.6680   -0.8910  -24.0410 C   0  0  0  0  0  0  0  0  0  0  0  0
  -13.5930   -1.2920  -23.0710 C   0  0  0  0  0  0  0  0  0  0  0  0
  -11.3710   -1.4400  -24.0960 C   0  0  0  0  0  0  0  0  0  0  0  0
  -11.9390   -2.8180  -22.2250 C   0  0  0  0  0  0  0  0  0  0  0  0
   -2.6990    1.3770  -20.9860 C   0  0  0  0  0  0  0  0  0  0  0  0
   -3.1850    0.5890  -22.0400 C   0  0  0  0  0  0  0  0  0  0  0  0
  -13.2360   -2.2970  -22.1820 C   0  0  0  0  0  0  0  0  0  0  0  0
  -10.9800   -2.4100  -23.1580 C   0  0  0  0  0  0  0  0  0  0  0  0
   -5.0700    0.4600  -18.2880 C   0  0  0  0  0  0  0  0  0  0  0  0
   -3.3210    1.3250  -19.7330 C   0  0  0  0  0  0  0  0  0  0  0  0
   -4.2830   -0.2660  -21.8410 C   0  0  0  0  0  0  0  0  0  0  0  0
   -6.0410   -1.1410  -20.3060 C   0  0  0  0  0  0  0  0  0  0  0  0
   -4.4270    0.4880  -19.5320 C   0  0  0  0  0  0  0  0  0  0  0  0
   -4.9140   -0.3240  -20.5780 C   0  0  0  0  0  0  0  0  0  0  0  0
   -8.5220   -1.8370  -23.0590 N   0  0  0  0  0  0  0  0  0  0  0  0
   -6.7440   -2.0090  -21.3410 C   0  0  0  0  0  0  0  0  0  0  0  0
   -7.7600   -1.9010  -24.3200 C   0  0  0  0  0  0  0  0  0  0  0  0
   -8.1780   -3.1920  -25.0430 C   0  0  0  0  0  0  0  0  0  0  0  0
   -9.0210   -3.9660  -24.0200 C   0  0  0  0  0  0  0  0  0  0  0  0
   -9.5210   -2.9170  -23.0030 C   0  0  0  0  0  0  0  0  0  0  0  0
  -14.1060   -2.6930  -21.2290 F   0  0  0  0  0  0  0  0  0  0  0  0
   -7.4950   -1.6850  -18.7820 H   0  0  0  0  0  0  0  0  0  0  0  0
  -12.9740   -0.1320  -24.7330 H   0  0  0  0  0  0  0  0  0  0  0  0
  -14.5670   -0.8220  -22.9980 H   0  0  0  0  0  0  0  0  0  0  0  0
  -10.6550   -1.0690  -24.8200 H   0  0  0  0  0  0  0  0  0  0  0  0
  -11.6330   -3.5230  -21.4930 H   0  0  0  0  0  0  0  0  0  0  0  0
   -1.8390    2.0230  -21.1300 H   0  0  0  0  0  0  0  0  0  0  0  0
   -2.6930    0.6170  -23.0060 H   0  0  0  0  0  0  0  0  0  0  0  0
   -4.7460    1.1120  -17.4790 H   0  0  0  0  0  0  0  0  0  0  0  0
   -2.9450    1.9300  -18.9170 H   0  0  0  0  0  0  0  0  0  0  0  0
   -4.6200   -0.8840  -22.6690 H   0  0  0  0  0  0  0  0  0  0  0  0
   -7.0830   -2.9350  -20.8640 H   0  0  0  0  0  0  0  0  0  0  0  0
   -6.0650   -2.3540  -22.1280 H   0  0  0  0  0  0  0  0  0  0  0  0
   -6.6840   -1.9110  -24.1130 H   0  0  0  0  0  0  0  0  0  0  0  0
   -7.9920   -1.0290  -24.9490 H   0  0  0  0  0  0  0  0  0  0  0  0
   -7.2990   -3.7740  -25.3470 H   0  0  0  0  0  0  0  0  0  0  0  0
   -8.7730   -2.9650  -25.9350 H   0  0  0  0  0  0  0  0  0  0  0  0
   -8.3460   -4.6570  -23.4960 H   0  0  0  0  0  0  0  0  0  0  0  0
   -9.8220   -4.5570  -24.4740 H   0  0  0  0  0  0  0  0  0  0  0  0
   -9.4550   -3.3800  -22.0110 H   0  0  0  0  0  0  0  0  0  0  0  0
  3  1  2  0
  4  2  2  0
  6  5  2  0
  7  5  1  0
 10  9  1  0
 11  6  1  0
 11  8  2  0
 12  7  2  0
 12  8  1  0
 13  2  1  0
 14  9  2  0
 15 10  2  0
 16  4  1  0
 17 13  2  0
 17 14  1  0
 18 15  1  0
 18 16  2  0
 18 17  1  0
 19  3  1  0
 20  3  1  0
 20 16  1  0
 21 19  1  0
 22 21  1  0
 23 22  1  0
 24 12  1  0
 24 19  1  0
 24 23  1  0
 25 11  1  0
  4 26  1  0
  5 27  1  0
  6 28  1  0
  7 29  1  0
  8 30  1  0
  9 31  1  0
 10 32  1  0
 13 33  1  0
 14 34  1  0
 15 35  1  0
 20 36  1  0
 20 37  1  0
 21 38  1  0
 21 39  1  0
 22 40  1  0
 22 41  1  0
 23 42  1  0
 23 43  1  0
 24 44  1  0
M  END
>  <Favorite_cresset>
false

>  <Protein_cresset>
sars_P

>  <MW_cresset>
334.4

>  <#Atoms_cresset>
25

>  <SlogP_cresset>
4.6

>  <TPSA_cresset>
33.2

>  <Flexibility_cresset>
2.8

>  <HBA_cresset>
3

>  <HBD_cresset>
0

>  <Rof5_cresset>
0

>  <Confs_cresset>
0

>  <Poses_cresset>
0

$$$$
predicted (34)
  xed2sdf           3D
 
 58 63  0  0  1  0  0  0  0  0999 V2000
   10.3670    3.3450   23.7890 O   0  0  0  0  0  0  0  0  0  0  0  0
    8.4450    1.4060   21.5130 O   0  0  0  0  0  0  0  0  0  0  0  0
    6.1250   -0.1870   17.7690 N   0  0  0  0  0  0  0  0  0  0  0  0
    6.3390    4.9570   22.3690 N   0  0  0  0  0  0  0  0  0  0  0  0
    5.6110    3.3910   23.9210 N   0  0  0  0  0  0  0  0  0  0  0  0
   10.0330    2.1700   23.8550 C   0  0  0  0  0  0  0  0  0  0  0  0
    8.2440    0.2620   21.8610 C   0  0  0  0  0  0  0  0  0  0  0  0
    7.3740    4.3920   22.9490 C   0  0  0  0  0  0  0  0  0  0  0  0
    6.8370   -0.5650   18.8480 C   0  0  0  0  0  0  0  0  0  0  0  0
    6.9300    3.4340   23.9040 C   0  0  0  0  0  0  0  0  0  0  0  0
   13.2550    0.2160   23.3710 C   0  0  0  0  0  0  0  0  0  0  0  0
   12.3560    1.2610   23.5990 C   0  0  0  0  0  0  0  0  0  0  0  0
   11.3810   -1.2730   22.9370 C   0  0  0  0  0  0  0  0  0  0  0  0
    2.7990    1.7710   20.6910 C   0  0  0  0  0  0  0  0  0  0  0  0
    3.5560    1.4230   21.8180 C   0  0  0  0  0  0  0  0  0  0  0  0
   12.7600   -1.0480   23.0390 C   0  0  0  0  0  0  0  0  0  0  0  0
   10.9660    1.0570   23.4660 C   0  0  0  0  0  0  0  0  0  0  0  0
   10.4500   -0.2180   23.1230 C   0  0  0  0  0  0  0  0  0  0  0  0
    4.9940    0.5070   17.9690 C   0  0  0  0  0  0  0  0  0  0  0  0
    3.2720    1.4780   19.4050 C   0  0  0  0  0  0  0  0  0  0  0  0
    4.7850    0.7690   21.6530 C   0  0  0  0  0  0  0  0  0  0  0  0
    6.4810   -0.2280   20.1630 C   0  0  0  0  0  0  0  0  0  0  0  0
    4.4970    0.8090   19.2440 C   0  0  0  0  0  0  0  0  0  0  0  0
    5.2610    0.4470   20.3690 C   0  0  0  0  0  0  0  0  0  0  0  0
    7.3390   -0.5800   21.2410 N   0  0  0  0  0  0  0  0  0  0  0  0
    8.7890    1.7760   24.3530 N   0  0  0  0  0  0  0  0  0  0  0  0
    5.2960    4.3290   22.9680 N   0  0  0  0  0  0  0  0  0  0  0  0
    7.8680    2.7840   24.9150 C   0  0  0  0  0  0  0  0  0  0  0  0
    3.9170    4.7530   22.6680 C   0  0  0  0  0  0  0  0  0  0  0  0
    8.0910   -2.6820   24.1950 C   0  0  0  0  0  0  0  0  0  0  0  0
    7.1570   -1.8090   21.9940 C   0  0  0  0  0  0  0  0  0  0  0  0
    8.3140    0.3630   24.3160 C   0  0  0  0  0  0  0  0  0  0  0  0
    8.3830   -1.8730   22.9160 C   0  0  0  0  0  0  0  0  0  0  0  0
    8.8980   -0.3950   23.0840 C   0  0  0  0  0  0  0  0  0  0  0  0
   13.6090   -2.0760   22.8410 F   0  0  0  0  0  0  0  0  0  0  0  0
    8.3580    4.7430   22.6900 H   0  0  0  0  0  0  0  0  0  0  0  0
    7.7460   -1.1230   18.6470 H   0  0  0  0  0  0  0  0  0  0  0  0
   14.3260    0.3830   23.4560 H   0  0  0  0  0  0  0  0  0  0  0  0
   12.7300    2.2270   23.9270 H   0  0  0  0  0  0  0  0  0  0  0  0
   11.0830   -2.2930   22.7400 H   0  0  0  0  0  0  0  0  0  0  0  0
    1.8520    2.2860   20.8150 H   0  0  0  0  0  0  0  0  0  0  0  0
    3.1980    1.6650   22.8180 H   0  0  0  0  0  0  0  0  0  0  0  0
    4.4840    0.8410   17.0760 H   0  0  0  0  0  0  0  0  0  0  0  0
    2.6770    1.7660   18.5480 H   0  0  0  0  0  0  0  0  0  0  0  0
    5.3640    0.5080   22.5270 H   0  0  0  0  0  0  0  0  0  0  0  0
    8.4780    3.5640   25.3910 H   0  0  0  0  0  0  0  0  0  0  0  0
    7.2740    2.3320   25.7170 H   0  0  0  0  0  0  0  0  0  0  0  0
    3.2000    4.2640   23.3340 H   0  0  0  0  0  0  0  0  0  0  0  0
    3.6630    4.5030   21.6320 H   0  0  0  0  0  0  0  0  0  0  0  0
    3.8470    5.8430   22.7900 H   0  0  0  0  0  0  0  0  0  0  0  0
    7.0370   -2.5990   24.4960 H   0  0  0  0  0  0  0  0  0  0  0  0
    8.7200   -2.3880   25.0430 H   0  0  0  0  0  0  0  0  0  0  0  0
    8.3010   -3.7370   23.9830 H   0  0  0  0  0  0  0  0  0  0  0  0
    6.2170   -1.7550   22.5630 H   0  0  0  0  0  0  0  0  0  0  0  0
    7.1310   -2.6880   21.3410 H   0  0  0  0  0  0  0  0  0  0  0  0
    7.2180    0.3400   24.3060 H   0  0  0  0  0  0  0  0  0  0  0  0
    8.6060   -0.1370   25.2450 H   0  0  0  0  0  0  0  0  0  0  0  0
    9.1040   -2.4340   22.3150 H   0  0  0  0  0  0  0  0  0  0  0  0
  6  1  2  0
  7  2  2  0
  8  4  2  0
  9  3  2  0
 10  5  2  0
 10  8  1  0
 12 11  1  0
 15 14  1  0
 16 11  2  0
 16 13  1  0
 17  6  1  0
 17 12  2  0
 18 13  2  0
 18 17  1  0
 19  3  1  0
 20 14  2  0
 21 15  2  0
 22  9  1  0
 23 19  2  0
 23 20  1  0
 24 21  1  0
 24 22  2  0
 24 23  1  0
 25  7  1  0
 25 22  1  0
 26  6  1  0
 27  4  1  0
 27  5  1  0
 28 10  1  0
 28 26  1  0
 29 27  1  0
 31 25  1  0
 32 26  1  0
 33 30  1  0
 33 31  1  0
 34  7  1  0
 34 18  1  0
 34 32  1  0
 34 33  1  0
 35 16  1  0
  8 36  1  0
  9 37  1  0
 11 38  1  0
 12 39  1  0
 13 40  1  0
 14 41  1  0
 15 42  1  0
 19 43  1  0
 20 44  1  0
 21 45  1  0
 28 46  1  0
 28 47  1  0
 29 48  1  0
 29 49  1  0
 29 50  1  0
 30 51  1  0
 30 52  1  0
 30 53  1  0
 31 54  1  0
 31 55  1  0
 32 56  1  0
 32 57  1  0
 33 58  1  0
M  END
>  <Favorite_cresset>
false

>  <Protein_cresset>
sars_P

>  <MW_cresset>
470.5

>  <#Atoms_cresset>
35

>  <SlogP_cresset>
3.4

>  <TPSA_cresset>
84.2

>  <Flexibility_cresset>
2.9

>  <HBA_cresset>
8

>  <HBD_cresset>
0

>  <Rof5_cresset>
0

>  <Confs_cresset>
0

>  <Poses_cresset>
0

$$$$
predicted (35)
  xed2sdf           3D
 
 55 58  0  0  0  0  0  0  0  0999 V2000
   13.4350   -3.0450   21.9050 Cl  0  0  0  0  0  0  0  0  0  0  0  0
    8.7950   -6.4680   28.1030 N   0  0  0  0  0  0  0  0  0  0  0  0
    7.6870    1.2460   21.9090 O   0  0  0  0  0  0  0  0  0  0  0  0
    8.9300   -5.6020   26.9250 C   0  0  0  0  0  0  0  0  0  0  0  0
    5.9330   -0.1540   17.8930 N   0  0  0  0  0  0  0  0  0  0  0  0
    7.7520    0.0600   22.1930 C   0  0  0  0  0  0  0  0  0  0  0  0
    6.6090   -0.6350   18.9490 C   0  0  0  0  0  0  0  0  0  0  0  0
   12.4930   -1.6560   25.5530 C   0  0  0  0  0  0  0  0  0  0  0  0
   13.0890   -2.4200   24.5320 C   0  0  0  0  0  0  0  0  0  0  0  0
    7.4830   -1.4590   25.0890 C   0  0  0  0  0  0  0  0  0  0  0  0
    8.6840   -2.8580   23.5090 C   0  0  0  0  0  0  0  0  0  0  0  0
    7.2360   -2.5760   25.8850 C   0  0  0  0  0  0  0  0  0  0  0  0
    8.4190   -3.9880   24.3010 C   0  0  0  0  0  0  0  0  0  0  0  0
   11.4720   -0.7240   25.2440 C   0  0  0  0  0  0  0  0  0  0  0  0
   11.4910   -1.4710   22.9540 C   0  0  0  0  0  0  0  0  0  0  0  0
    2.6720    1.7910   20.9280 C   0  0  0  0  0  0  0  0  0  0  0  0
    3.3470    1.2450   22.0300 C   0  0  0  0  0  0  0  0  0  0  0  0
   12.6010   -2.2850   23.2230 C   0  0  0  0  0  0  0  0  0  0  0  0
    8.2510   -1.5860   23.9290 C   0  0  0  0  0  0  0  0  0  0  0  0
    7.7370   -3.8380   25.5280 C   0  0  0  0  0  0  0  0  0  0  0  0
   10.9530   -0.6410   23.9380 C   0  0  0  0  0  0  0  0  0  0  0  0
    4.8100    0.5440   18.1370 C   0  0  0  0  0  0  0  0  0  0  0  0
    3.1540    1.5580   19.6290 C   0  0  0  0  0  0  0  0  0  0  0  0
    4.5190    0.5020   21.8380 C   0  0  0  0  0  0  0  0  0  0  0  0
    6.1850   -0.4650   20.2790 C   0  0  0  0  0  0  0  0  0  0  0  0
    4.3100    0.7880   19.4300 C   0  0  0  0  0  0  0  0  0  0  0  0
    5.0050    0.2630   20.5330 C   0  0  0  0  0  0  0  0  0  0  0  0
    8.5770   -0.4220   23.1940 N   0  0  0  0  0  0  0  0  0  0  0  0
    7.5760   -4.9830   26.5260 C   0  0  0  0  0  0  0  0  0  0  0  0
    7.0310   -1.0400   21.3910 C   0  0  0  0  0  0  0  0  0  0  0  0
    9.8110    0.2970   23.5650 C   0  0  0  0  0  0  0  0  0  0  0  0
    7.9570   -7.0420   28.0160 H   0  0  0  0  0  0  0  0  0  0  0  0
    8.6870   -5.8920   28.9390 H   0  0  0  0  0  0  0  0  0  0  0  0
    9.6360   -4.7920   27.1520 H   0  0  0  0  0  0  0  0  0  0  0  0
    9.3300   -6.1780   26.0820 H   0  0  0  0  0  0  0  0  0  0  0  0
    7.5330   -1.1640   18.7220 H   0  0  0  0  0  0  0  0  0  0  0  0
   12.8220   -1.7840   26.5830 H   0  0  0  0  0  0  0  0  0  0  0  0
   13.9170   -3.0970   24.7570 H   0  0  0  0  0  0  0  0  0  0  0  0
    7.1270   -0.4850   25.4030 H   0  0  0  0  0  0  0  0  0  0  0  0
    9.2610   -2.9630   22.5940 H   0  0  0  0  0  0  0  0  0  0  0  0
    6.6840   -2.4470   26.8090 H   0  0  0  0  0  0  0  0  0  0  0  0
    8.7800   -4.9630   23.9840 H   0  0  0  0  0  0  0  0  0  0  0  0
   11.1010   -0.0590   26.0150 H   0  0  0  0  0  0  0  0  0  0  0  0
   11.0420   -1.4750   21.9730 H   0  0  0  0  0  0  0  0  0  0  0  0
    1.7850    2.3980   21.0840 H   0  0  0  0  0  0  0  0  0  0  0  0
    2.9730    1.4110   23.0370 H   0  0  0  0  0  0  0  0  0  0  0  0
    4.3180    0.9520   17.2660 H   0  0  0  0  0  0  0  0  0  0  0  0
    2.6310    1.9790   18.7800 H   0  0  0  0  0  0  0  0  0  0  0  0
    5.0470    0.1310   22.7110 H   0  0  0  0  0  0  0  0  0  0  0  0
    6.9020   -5.7640   26.1490 H   0  0  0  0  0  0  0  0  0  0  0  0
    7.1160   -4.5920   27.4440 H   0  0  0  0  0  0  0  0  0  0  0  0
    7.7950   -1.7110   20.9740 H   0  0  0  0  0  0  0  0  0  0  0  0
    6.4010   -1.6490   22.0540 H   0  0  0  0  0  0  0  0  0  0  0  0
    9.6060    0.9770   24.3930 H   0  0  0  0  0  0  0  0  0  0  0  0
   10.1390    0.9100   22.7180 H   0  0  0  0  0  0  0  0  0  0  0  0
  4  2  1  0
  6  3  2  0
  7  5  2  0
  9  8  2  0
 12 10  2  0
 13 11  1  0
 14  8  1  0
 17 16  1  0
 18  1  1  0
 18  9  1  0
 18 15  2  0
 19 10  1  0
 19 11  2  0
 20 12  1  0
 20 13  2  0
 21 14  2  0
 21 15  1  0
 22  5  1  0
 23 16  2  0
 24 17  2  0
 25  7  1  0
 26 22  2  0
 26 23  1  0
 27 24  1  0
 27 25  2  0
 27 26  1  0
 28  6  1  0
 28 19  1  0
 29  4  1  0
 29 20  1  0
 30  6  1  0
 30 25  1  0
 31 21  1  0
 31 28  1  0
  2 32  1  0
  2 33  1  0
  4 34  1  0
  4 35  1  0
  7 36  1  0
  8 37  1  0
  9 38  1  0
 10 39  1  0
 11 40  1  0
 12 41  1  0
 13 42  1  0
 14 43  1  0
 15 44  1  0
 16 45  1  0
 17 46  1  0
 22 47  1  0
 23 48  1  0
 24 49  1  0
 29 50  1  0
 29 51  1  0
 30 52  1  0
 30 53  1  0
 31 54  1  0
 31 55  1  0
M  END
>  <Favorite_cresset>
false

>  <Protein_cresset>
sars_P

>  <MW_cresset>
429.9

>  <#Atoms_cresset>
31

>  <SlogP_cresset>
5.2

>  <TPSA_cresset>
59.2

>  <Flexibility_cresset>
7.5

>  <HBA_cresset>
4

>  <HBD_cresset>
2

>  <Rof5_cresset>
1

>  <Confs_cresset>
0

>  <Poses_cresset>
0

$$$$
predicted (36)
  xed2sdf           3D
 
 59 64  0  0  1  0  0  0  0  0999 V2000
   10.2380    3.1270   23.9120 O   0  0  0  0  0  0  0  0  0  0  0  0
    8.4490    1.2210   21.4680 O   0  0  0  0  0  0  0  0  0  0  0  0
    6.1320   -0.0820   17.7490 N   0  0  0  0  0  0  0  0  0  0  0  0
    5.4750    3.3020   23.9190 N   0  0  0  0  0  0  0  0  0  0  0  0
    9.8930    1.9540   23.9170 C   0  0  0  0  0  0  0  0  0  0  0  0
    8.1760    0.0980   21.8310 C   0  0  0  0  0  0  0  0  0  0  0  0
    6.8100   -0.5270   18.8270 C   0  0  0  0  0  0  0  0  0  0  0  0
    6.8020    3.2380   23.9170 C   0  0  0  0  0  0  0  0  0  0  0  0
   13.1270    0.0240   23.3690 C   0  0  0  0  0  0  0  0  0  0  0  0
   12.2230    1.0670   23.5890 C   0  0  0  0  0  0  0  0  0  0  0  0
   11.2610   -1.4670   22.9200 C   0  0  0  0  0  0  0  0  0  0  0  0
    2.6870    1.6430   20.6920 C   0  0  0  0  0  0  0  0  0  0  0  0
    3.4070    1.2150   21.8160 C   0  0  0  0  0  0  0  0  0  0  0  0
    7.3360    4.0670   22.8970 C   0  0  0  0  0  0  0  0  0  0  0  0
   12.6410   -1.2440   23.0450 C   0  0  0  0  0  0  0  0  0  0  0  0
   10.8330    0.8580   23.4800 C   0  0  0  0  0  0  0  0  0  0  0  0
   10.3310   -0.4100   23.1050 C   0  0  0  0  0  0  0  0  0  0  0  0
    4.9850    0.5930   17.9550 C   0  0  0  0  0  0  0  0  0  0  0  0
    3.2050    1.4430   19.4040 C   0  0  0  0  0  0  0  0  0  0  0  0
    4.6430    0.5720   21.6450 C   0  0  0  0  0  0  0  0  0  0  0  0
    6.3920   -0.3030   20.1460 C   0  0  0  0  0  0  0  0  0  0  0  0
    6.3000    4.6340   22.2260 C   0  0  0  0  0  0  0  0  0  0  0  0
    4.4380    0.7910   19.2320 C   0  0  0  0  0  0  0  0  0  0  0  0
    5.1590    0.3460   20.3560 C   0  0  0  0  0  0  0  0  0  0  0  0
    7.2240   -0.6960   21.2260 N   0  0  0  0  0  0  0  0  0  0  0  0
    8.6330    1.5460   24.3720 N   0  0  0  0  0  0  0  0  0  0  0  0
    5.1770    4.1690   22.8780 N   0  0  0  0  0  0  0  0  0  0  0  0
    7.6850    2.5330   24.9450 C   0  0  0  0  0  0  0  0  0  0  0  0
    3.8120    4.6260   22.5790 C   0  0  0  0  0  0  0  0  0  0  0  0
    8.0190   -2.9230   24.0710 C   0  0  0  0  0  0  0  0  0  0  0  0
    7.0390   -1.9570   21.9240 C   0  0  0  0  0  0  0  0  0  0  0  0
    8.1710    0.1290   24.2830 C   0  0  0  0  0  0  0  0  0  0  0  0
    8.2800   -2.0630   22.8200 C   0  0  0  0  0  0  0  0  0  0  0  0
    8.7900   -0.5920   23.0480 C   0  0  0  0  0  0  0  0  0  0  0  0
   13.5050   -2.2680   22.8820 F   0  0  0  0  0  0  0  0  0  0  0  0
    7.7410   -1.0490   18.6260 H   0  0  0  0  0  0  0  0  0  0  0  0
   14.1960    0.1990   23.4700 H   0  0  0  0  0  0  0  0  0  0  0  0
   12.5960    2.0330   23.9050 H   0  0  0  0  0  0  0  0  0  0  0  0
   10.9550   -2.4880   22.7360 H   0  0  0  0  0  0  0  0  0  0  0  0
    1.7280    2.1350   20.8160 H   0  0  0  0  0  0  0  0  0  0  0  0
    3.0170    1.3850   22.8190 H   0  0  0  0  0  0  0  0  0  0  0  0
    8.3770    4.2690   22.7070 H   0  0  0  0  0  0  0  0  0  0  0  0
    4.5160    1.0180   17.0740 H   0  0  0  0  0  0  0  0  0  0  0  0
    2.6390    1.7940   18.5520 H   0  0  0  0  0  0  0  0  0  0  0  0
    5.1960    0.2570   22.5200 H   0  0  0  0  0  0  0  0  0  0  0  0
    6.2610    5.3580   21.4220 H   0  0  0  0  0  0  0  0  0  0  0  0
    8.2720    3.2820   25.4930 H   0  0  0  0  0  0  0  0  0  0  0  0
    7.0570    2.0350   25.6930 H   0  0  0  0  0  0  0  0  0  0  0  0
    3.0660    3.9430   22.9990 H   0  0  0  0  0  0  0  0  0  0  0  0
    3.6830    4.6690   21.4910 H   0  0  0  0  0  0  0  0  0  0  0  0
    3.6670    5.6380   22.9790 H   0  0  0  0  0  0  0  0  0  0  0  0
    6.9740   -2.8350   24.4030 H   0  0  0  0  0  0  0  0  0  0  0  0
    8.6800   -2.6580   24.9050 H   0  0  0  0  0  0  0  0  0  0  0  0
    8.2090   -3.9700   23.8040 H   0  0  0  0  0  0  0  0  0  0  0  0
    6.1080   -1.9260   22.5100 H   0  0  0  0  0  0  0  0  0  0  0  0
    6.9970   -2.7990   21.2250 H   0  0  0  0  0  0  0  0  0  0  0  0
    7.0780    0.1110   24.2230 H   0  0  0  0  0  0  0  0  0  0  0  0
    8.4290   -0.4080   25.2020 H   0  0  0  0  0  0  0  0  0  0  0  0
    8.9990   -2.5870   22.1810 H   0  0  0  0  0  0  0  0  0  0  0  0
  5  1  2  0
  6  2  2  0
  7  3  2  0
  8  4  2  0
 10  9  1  0
 13 12  1  0
 14  8  1  0
 15  9  2  0
 15 11  1  0
 16  5  1  0
 16 10  2  0
 17 11  2  0
 17 16  1  0
 18  3  1  0
 19 12  2  0
 20 13  2  0
 21  7  1  0
 22 14  2  0
 23 18  2  0
 23 19  1  0
 24 20  1  0
 24 21  2  0
 24 23  1  0
 25  6  1  0
 25 21  1  0
 26  5  1  0
 27  4  1  0
 27 22  1  0
 28  8  1  0
 28 26  1  0
 29 27  1  0
 31 25  1  0
 32 26  1  0
 33 30  1  0
 33 31  1  0
 34  6  1  0
 34 17  1  0
 34 32  1  0
 34 33  1  0
 35 15  1  0
  7 36  1  0
  9 37  1  0
 10 38  1  0
 11 39  1  0
 12 40  1  0
 13 41  1  0
 14 42  1  0
 18 43  1  0
 19 44  1  0
 20 45  1  0
 22 46  1  0
 28 47  1  0
 28 48  1  0
 29 49  1  0
 29 50  1  0
 29 51  1  0
 30 52  1  0
 30 53  1  0
 30 54  1  0
 31 55  1  0
 31 56  1  0
 32 57  1  0
 32 58  1  0
 33 59  1  0
M  END
>  <Favorite_cresset>
false

>  <Protein_cresset>
sars_P

>  <MW_cresset>
469.5

>  <#Atoms_cresset>
35

>  <SlogP_cresset>
4.0

>  <TPSA_cresset>
71.3

>  <Flexibility_cresset>
2.9

>  <HBA_cresset>
7

>  <HBD_cresset>
0

>  <Rof5_cresset>
0

>  <Confs_cresset>
0

>  <Poses_cresset>
0

$$$$
predicted (37)
  xed2sdf           3D
 
 48 51  0  0  0  0  0  0  0  0999 V2000
   13.5710   -3.1900   21.9090 Cl  0  0  0  0  0  0  0  0  0  0  0  0
    6.2950   -5.2080   27.5160 N   0  0  0  0  0  0  0  0  0  0  0  0
    7.9250    1.1670   21.7570 O   0  0  0  0  0  0  0  0  0  0  0  0
    6.6990   -4.3900   26.8030 C   0  0  0  0  0  0  0  0  0  0  0  0
    5.8500   -0.2970   17.9960 N   0  0  0  0  0  0  0  0  0  0  0  0
    7.8680    0.0220   22.1800 C   0  0  0  0  0  0  0  0  0  0  0  0
    6.5470   -0.7670   19.0430 C   0  0  0  0  0  0  0  0  0  0  0  0
   12.5810   -1.6490   25.5010 C   0  0  0  0  0  0  0  0  0  0  0  0
   13.1650   -2.4770   24.5260 C   0  0  0  0  0  0  0  0  0  0  0  0
    8.0390   -3.7510   24.8410 C   0  0  0  0  0  0  0  0  0  0  0  0
    6.8280   -2.0430   26.0870 C   0  0  0  0  0  0  0  0  0  0  0  0
    8.5280   -2.7650   23.9720 C   0  0  0  0  0  0  0  0  0  0  0  0
    7.3270   -1.0620   25.2180 C   0  0  0  0  0  0  0  0  0  0  0  0
   11.6030   -0.7170   25.1340 C   0  0  0  0  0  0  0  0  0  0  0  0
   11.5720   -1.6430   22.9060 C   0  0  0  0  0  0  0  0  0  0  0  0
    2.6950    1.7630   21.0540 C   0  0  0  0  0  0  0  0  0  0  0  0
    3.4550    1.3430   22.1570 C   0  0  0  0  0  0  0  0  0  0  0  0
   12.6980   -2.4130   23.2060 C   0  0  0  0  0  0  0  0  0  0  0  0
    7.1920   -3.3900   25.9050 C   0  0  0  0  0  0  0  0  0  0  0  0
    8.1860   -1.4080   24.1550 C   0  0  0  0  0  0  0  0  0  0  0  0
   11.0500   -0.7490   23.8470 C   0  0  0  0  0  0  0  0  0  0  0  0
    4.7430    0.4220   18.2520 C   0  0  0  0  0  0  0  0  0  0  0  0
    3.1150    1.4570   19.7500 C   0  0  0  0  0  0  0  0  0  0  0  0
    4.6310    0.6020   21.9570 C   0  0  0  0  0  0  0  0  0  0  0  0
    6.1920   -0.5180   20.3810 C   0  0  0  0  0  0  0  0  0  0  0  0
    4.2900    0.7120   19.5500 C   0  0  0  0  0  0  0  0  0  0  0  0
    5.0420    0.2580   20.6480 C   0  0  0  0  0  0  0  0  0  0  0  0
    8.6450   -0.4140   23.2380 N   0  0  0  0  0  0  0  0  0  0  0  0
    7.0630   -1.0850   21.4810 C   0  0  0  0  0  0  0  0  0  0  0  0
    9.9640    0.2180   23.4230 C   0  0  0  0  0  0  0  0  0  0  0  0
    7.4310   -1.3550   18.8050 H   0  0  0  0  0  0  0  0  0  0  0  0
   12.9240   -1.6870   26.5290 H   0  0  0  0  0  0  0  0  0  0  0  0
   13.9790   -3.1410   24.7920 H   0  0  0  0  0  0  0  0  0  0  0  0
    8.3070   -4.7980   24.6910 H   0  0  0  0  0  0  0  0  0  0  0  0
    6.1660   -1.7600   26.9070 H   0  0  0  0  0  0  0  0  0  0  0  0
    9.1650   -3.0560   23.1440 H   0  0  0  0  0  0  0  0  0  0  0  0
    7.0340   -0.0270   25.3670 H   0  0  0  0  0  0  0  0  0  0  0  0
   11.2390   -0.0010   25.8590 H   0  0  0  0  0  0  0  0  0  0  0  0
   11.1160   -1.7100   21.9290 H   0  0  0  0  0  0  0  0  0  0  0  0
    1.7830    2.3340   21.2070 H   0  0  0  0  0  0  0  0  0  0  0  0
    3.1370    1.5980   23.1660 H   0  0  0  0  0  0  0  0  0  0  0  0
    4.2300    0.8010   17.3830 H   0  0  0  0  0  0  0  0  0  0  0  0
    2.5370    1.8010   18.8990 H   0  0  0  0  0  0  0  0  0  0  0  0
    5.2200    0.3260   22.8250 H   0  0  0  0  0  0  0  0  0  0  0  0
    7.7690   -1.8120   21.0540 H   0  0  0  0  0  0  0  0  0  0  0  0
    6.4480   -1.6290   22.2100 H   0  0  0  0  0  0  0  0  0  0  0  0
    9.8780    1.0470   24.1360 H   0  0  0  0  0  0  0  0  0  0  0  0
   10.2860    0.6290   22.4560 H   0  0  0  0  0  0  0  0  0  0  0  0
  4  2  3  0
  6  3  2  0
  7  5  2  0
  9  8  2  0
 12 10  1  0
 13 11  2  0
 14  8  1  0
 17 16  1  0
 18  1  1  0
 18  9  1  0
 18 15  2  0
 19  4  1  0
 19 10  2  0
 19 11  1  0
 20 12  2  0
 20 13  1  0
 21 14  2  0
 21 15  1  0
 22  5  1  0
 23 16  2  0
 24 17  2  0
 25  7  1  0
 26 22  2  0
 26 23  1  0
 27 24  1  0
 27 25  2  0
 27 26  1  0
 28  6  1  0
 28 20  1  0
 29  6  1  0
 29 25  1  0
 30 21  1  0
 30 28  1  0
  7 31  1  0
  8 32  1  0
  9 33  1  0
 10 34  1  0
 11 35  1  0
 12 36  1  0
 13 37  1  0
 14 38  1  0
 15 39  1  0
 16 40  1  0
 17 41  1  0
 22 42  1  0
 23 43  1  0
 24 44  1  0
 29 45  1  0
 29 46  1  0
 30 47  1  0
 30 48  1  0
M  END
>  <Favorite_cresset>
false

>  <Protein_cresset>
sars_P

>  <MW_cresset>
411.9

>  <#Atoms_cresset>
30

>  <SlogP_cresset>
5.6

>  <TPSA_cresset>
57.0

>  <Flexibility_cresset>
4.5

>  <HBA_cresset>
4

>  <HBD_cresset>
0

>  <Rof5_cresset>
1

>  <Confs_cresset>
0

>  <Poses_cresset>
0

$$$$
predicted (38)
  xed2sdf           3D
 
 71 76  0  0  1  0  0  0  0  0999 V2000
   13.7360   -2.1270   23.5320 Cl  0  0  0  0  0  0  0  0  0  0  0  0
   10.2130    3.6820   23.9100 O   0  0  0  0  0  0  0  0  0  0  0  0
    8.6480    1.4520   21.5840 O   0  0  0  0  0  0  0  0  0  0  0  0
    5.3190   -5.0630   20.8100 O   0  0  0  0  0  0  0  0  0  0  0  0
    5.2660   -7.5480   21.2900 O   0  0  0  0  0  0  0  0  0  0  0  0
    6.0520   -0.2350   18.0500 N   0  0  0  0  0  0  0  0  0  0  0  0
    7.6170   -3.7240   24.0520 O   0  0  0  0  0  0  0  0  0  0  0  0
    9.8670    2.5150   24.0240 C   0  0  0  0  0  0  0  0  0  0  0  0
    8.2790    0.4150   22.0780 C   0  0  0  0  0  0  0  0  0  0  0  0
    6.8090   -0.4960   19.1330 C   0  0  0  0  0  0  0  0  0  0  0  0
   13.1180    0.5300   23.6910 C   0  0  0  0  0  0  0  0  0  0  0  0
   12.2190    1.5940   23.8120 C   0  0  0  0  0  0  0  0  0  0  0  0
   11.2580   -1.0140   23.4930 C   0  0  0  0  0  0  0  0  0  0  0  0
    2.7850    1.9460   20.8960 C   0  0  0  0  0  0  0  0  0  0  0  0
    3.5680    1.6740   22.0310 C   0  0  0  0  0  0  0  0  0  0  0  0
   12.6340   -0.7760   23.5820 C   0  0  0  0  0  0  0  0  0  0  0  0
   10.8250    1.3650   23.7720 C   0  0  0  0  0  0  0  0  0  0  0  0
   10.3320    0.0520   23.5470 C   0  0  0  0  0  0  0  0  0  0  0  0
    4.9100    0.4560   18.2320 C   0  0  0  0  0  0  0  0  0  0  0  0
    3.2450    1.5710   19.6250 C   0  0  0  0  0  0  0  0  0  0  0  0
    4.8090    1.0290   21.8960 C   0  0  0  0  0  0  0  0  0  0  0  0
    6.4680   -0.0700   20.4310 C   0  0  0  0  0  0  0  0  0  0  0  0
    4.4630    0.8850   19.4910 C   0  0  0  0  0  0  0  0  0  0  0  0
    5.2550    0.6200   20.6220 C   0  0  0  0  0  0  0  0  0  0  0  0
    7.3060   -0.3890   21.5270 N   0  0  0  0  0  0  0  0  0  0  0  0
    8.5750    2.1480   24.4280 N   0  0  0  0  0  0  0  0  0  0  0  0
    7.4030   -4.8150   24.9530 C   0  0  0  0  0  0  0  0  0  0  0  0
    7.5750    3.1730   24.7570 C   0  0  0  0  0  0  0  0  0  0  0  0
    6.8390   -5.9850   24.0880 C   0  0  0  0  0  0  0  0  0  0  0  0
    7.8900   -2.4060   24.5720 C   0  0  0  0  0  0  0  0  0  0  0  0
    7.0970   -1.5870   22.2960 C   0  0  0  0  0  0  0  0  0  0  0  0
    8.1510    0.7240   24.5430 C   0  0  0  0  0  0  0  0  0  0  0  0
    5.2850    5.3610   22.6810 C   0  0  0  0  0  0  0  0  0  0  0  0
    6.9720    3.7940   23.4910 C   0  0  0  0  0  0  0  0  0  0  0  0
    7.2320   -6.0830   22.5400 C   0  0  0  0  0  0  0  0  0  0  0  0
    5.3790   -5.8550   23.4890 C   0  0  0  0  0  0  0  0  0  0  0  0
    8.2660   -1.6200   23.3020 C   0  0  0  0  0  0  0  0  0  0  0  0
    8.7960   -0.1400   23.4160 C   0  0  0  0  0  0  0  0  0  0  0  0
    5.9030    4.7340   23.8560 N   0  0  0  0  0  0  0  0  0  0  0  0
    5.6020   -6.1960   21.6740 S   0  0  0  0  0  0  0  0  0  0  0  0
    7.7110   -1.0780   18.9570 H   0  0  0  0  0  0  0  0  0  0  0  0
   14.1870    0.7070   23.7140 H   0  0  0  0  0  0  0  0  0  0  0  0
   12.6130    2.5930   23.9790 H   0  0  0  0  0  0  0  0  0  0  0  0
   10.9380   -2.0430   23.3990 H   0  0  0  0  0  0  0  0  0  0  0  0
    1.8350    2.4650   21.0030 H   0  0  0  0  0  0  0  0  0  0  0  0
    3.2180    1.9640   23.0170 H   0  0  0  0  0  0  0  0  0  0  0  0
    4.3260    0.6470   17.3410 H   0  0  0  0  0  0  0  0  0  0  0  0
    2.6370    1.7830   18.7540 H   0  0  0  0  0  0  0  0  0  0  0  0
    5.4110    0.8530   22.7830 H   0  0  0  0  0  0  0  0  0  0  0  0
    8.3500   -5.1180   25.4210 H   0  0  0  0  0  0  0  0  0  0  0  0
    6.6880   -4.5380   25.7410 H   0  0  0  0  0  0  0  0  0  0  0  0
    8.0390    3.9510   25.3750 H   0  0  0  0  0  0  0  0  0  0  0  0
    6.7630    2.7270   25.3420 H   0  0  0  0  0  0  0  0  0  0  0  0
    7.0000   -6.9290   24.6190 H   0  0  0  0  0  0  0  0  0  0  0  0
    8.7280   -2.4120   25.2830 H   0  0  0  0  0  0  0  0  0  0  0  0
    6.9940   -1.9850   25.0540 H   0  0  0  0  0  0  0  0  0  0  0  0
    6.1270   -1.5270   22.8010 H   0  0  0  0  0  0  0  0  0  0  0  0
    7.0990   -2.4600   21.6320 H   0  0  0  0  0  0  0  0  0  0  0  0
    7.0560    0.6640   24.4840 H   0  0  0  0  0  0  0  0  0  0  0  0
    8.4610    0.3500   25.5310 H   0  0  0  0  0  0  0  0  0  0  0  0
    4.4580    6.0160   22.9820 H   0  0  0  0  0  0  0  0  0  0  0  0
    4.8810    4.5960   22.0050 H   0  0  0  0  0  0  0  0  0  0  0  0
    6.0280    5.9580   22.1370 H   0  0  0  0  0  0  0  0  0  0  0  0
    7.7620    4.3120   22.9300 H   0  0  0  0  0  0  0  0  0  0  0  0
    6.5790    2.9980   22.8450 H   0  0  0  0  0  0  0  0  0  0  0  0
    7.7730   -5.2080   22.1560 H   0  0  0  0  0  0  0  0  0  0  0  0
    7.8190   -6.9740   22.2940 H   0  0  0  0  0  0  0  0  0  0  0  0
    4.6570   -6.5440   23.9420 H   0  0  0  0  0  0  0  0  0  0  0  0
    5.0080   -4.8400   23.6190 H   0  0  0  0  0  0  0  0  0  0  0  0
    9.0160   -2.2130   22.7730 H   0  0  0  0  0  0  0  0  0  0  0  0
    5.1840    4.2270   24.3730 H   0  0  0  0  0  0  0  0  0  0  0  0
  8  2  2  0
  9  3  2  0
 10  6  2  0
 12 11  1  0
 15 14  1  0
 16  1  1  0
 16 11  2  0
 16 13  1  0
 17  8  1  0
 17 12  2  0
 18 13  2  0
 18 17  1  0
 19  6  1  0
 20 14  2  0
 21 15  2  0
 22 10  1  0
 23 19  2  0
 23 20  1  0
 24 21  1  0
 24 22  2  0
 24 23  1  0
 25  9  1  0
 25 22  1  0
 26  8  1  0
 27  7  1  0
 28 26  1  0
 29 27  1  0
 30  7  1  0
 31 25  1  0
 32 26  1  0
 34 28  1  0
 35 29  1  0
 36 29  1  0
 37 30  1  0
 37 31  1  0
 38  9  1  0
 38 18  1  0
 38 32  1  0
 38 37  1  0
 39 33  1  0
 39 34  1  0
 40  4  2  0
 40  5  2  0
 40 35  1  0
 40 36  1  0
 10 41  1  0
 11 42  1  0
 12 43  1  0
 13 44  1  0
 14 45  1  0
 15 46  1  0
 19 47  1  0
 20 48  1  0
 21 49  1  0
 27 50  1  0
 27 51  1  0
 28 52  1  0
 28 53  1  0
 29 54  1  0
 30 55  1  0
 30 56  1  0
 31 57  1  0
 31 58  1  0
 32 59  1  0
 32 60  1  0
 33 61  1  0
 33 62  1  0
 33 63  1  0
 34 64  1  0
 34 65  1  0
 35 66  1  0
 35 67  1  0
 36 68  1  0
 36 69  1  0
 37 70  1  0
 39 71  1  0
M  END
>  <Favorite_cresset>
false

>  <Protein_cresset>
sars_P

>  <MW_cresset>
583.1

>  <#Atoms_cresset>
40

>  <SlogP_cresset>
2.6

>  <TPSA_cresset>
108.9

>  <Flexibility_cresset>
7.9

>  <HBA_cresset>
9

>  <HBD_cresset>
1

>  <Rof5_cresset>
1

>  <Confs_cresset>
0

>  <Poses_cresset>
0

$$$$
predicted (39)
  xed2sdf           3D
 
 60 64  0  0  1  0  0  0  0  0999 V2000
   13.7380   -2.0940   22.9850 Cl  0  0  0  0  0  0  0  0  0  0  0  0
    9.9300    3.3610   24.0500 O   0  0  0  0  0  0  0  0  0  0  0  0
    7.6440    4.9720   24.8670 O   0  0  0  0  0  0  0  0  0  0  0  0
    8.4260    1.2330   21.4810 O   0  0  0  0  0  0  0  0  0  0  0  0
    5.9790   -0.1490   17.8980 N   0  0  0  0  0  0  0  0  0  0  0  0
    7.8240   -2.5150   24.3200 O   0  0  0  0  0  0  0  0  0  0  0  0
    9.5940    2.1890   24.0490 C   0  0  0  0  0  0  0  0  0  0  0  0
    7.2970    4.0810   24.1050 C   0  0  0  0  0  0  0  0  0  0  0  0
    8.0960    0.1580   21.9390 C   0  0  0  0  0  0  0  0  0  0  0  0
    6.6820   -0.5710   18.9670 C   0  0  0  0  0  0  0  0  0  0  0  0
   12.9370    0.4590   23.5120 C   0  0  0  0  0  0  0  0  0  0  0  0
   11.9730    1.4330   23.7700 C   0  0  0  0  0  0  0  0  0  0  0  0
   11.1800   -1.1790   23.1360 C   0  0  0  0  0  0  0  0  0  0  0  0
    2.7740    1.9130   20.9280 C   0  0  0  0  0  0  0  0  0  0  0  0
    3.5020    1.4480   22.0330 C   0  0  0  0  0  0  0  0  0  0  0  0
   12.5390   -0.8490   23.2120 C   0  0  0  0  0  0  0  0  0  0  0  0
   10.6060    1.1150   23.7180 C   0  0  0  0  0  0  0  0  0  0  0  0
   10.1900   -0.1930   23.3500 C   0  0  0  0  0  0  0  0  0  0  0  0
    4.8720    0.5890   18.1260 C   0  0  0  0  0  0  0  0  0  0  0  0
    3.2150    1.6330   19.6180 C   0  0  0  0  0  0  0  0  0  0  0  0
    4.6840    0.7230   21.8380 C   0  0  0  0  0  0  0  0  0  0  0  0
    6.3150   -0.2790   20.2910 C   0  0  0  0  0  0  0  0  0  0  0  0
    4.4030    0.9020   19.4190 C   0  0  0  0  0  0  0  0  0  0  0  0
    5.1420    0.4560   20.5280 C   0  0  0  0  0  0  0  0  0  0  0  0
    7.0020    4.3130   22.7710 N   0  0  0  0  0  0  0  0  0  0  0  0
    7.1610   -0.6610   21.3590 N   0  0  0  0  0  0  0  0  0  0  0  0
    8.2890    1.7480   24.3340 N   0  0  0  0  0  0  0  0  0  0  0  0
    6.9600    5.6680   22.1950 C   0  0  0  0  0  0  0  0  0  0  0  0
    7.1120    2.6310   24.5860 C   0  0  0  0  0  0  0  0  0  0  0  0
    7.5130   -4.4210   25.7670 C   0  0  0  0  0  0  0  0  0  0  0  0
    7.4560   -3.9070   24.3120 C   0  0  0  0  0  0  0  0  0  0  0  0
    7.0400   -1.9480   22.0270 C   0  0  0  0  0  0  0  0  0  0  0  0
    8.0140    0.2930   24.4140 C   0  0  0  0  0  0  0  0  0  0  0  0
    8.2160   -1.9610   23.0430 C   0  0  0  0  0  0  0  0  0  0  0  0
    8.6740   -0.4570   23.2190 C   0  0  0  0  0  0  0  0  0  0  0  0
    7.5920   -1.1310   18.7650 H   0  0  0  0  0  0  0  0  0  0  0  0
   13.9890    0.7240   23.5610 H   0  0  0  0  0  0  0  0  0  0  0  0
   12.2870    2.4440   24.0230 H   0  0  0  0  0  0  0  0  0  0  0  0
   10.9240   -2.2080   22.9140 H   0  0  0  0  0  0  0  0  0  0  0  0
    1.8610    2.4770   21.0970 H   0  0  0  0  0  0  0  0  0  0  0  0
    3.1470    1.6360   23.0450 H   0  0  0  0  0  0  0  0  0  0  0  0
    4.3630    0.9570   17.2460 H   0  0  0  0  0  0  0  0  0  0  0  0
    2.6280    1.9690   18.7710 H   0  0  0  0  0  0  0  0  0  0  0  0
    5.2120    0.3420   22.7060 H   0  0  0  0  0  0  0  0  0  0  0  0
    6.7380    3.5260   22.1890 H   0  0  0  0  0  0  0  0  0  0  0  0
    5.9250    5.9240   21.9390 H   0  0  0  0  0  0  0  0  0  0  0  0
    7.5810    5.7160   21.2930 H   0  0  0  0  0  0  0  0  0  0  0  0
    7.3420    6.4010   22.9160 H   0  0  0  0  0  0  0  0  0  0  0  0
    6.2310    2.2170   24.0780 H   0  0  0  0  0  0  0  0  0  0  0  0
    6.8960    2.6570   25.6620 H   0  0  0  0  0  0  0  0  0  0  0  0
    8.5240   -4.3140   26.1730 H   0  0  0  0  0  0  0  0  0  0  0  0
    6.8440   -3.8570   26.4230 H   0  0  0  0  0  0  0  0  0  0  0  0
    7.2320   -5.4790   25.8320 H   0  0  0  0  0  0  0  0  0  0  0  0
    6.4420   -4.0180   23.9150 H   0  0  0  0  0  0  0  0  0  0  0  0
    8.1340   -4.4980   23.6820 H   0  0  0  0  0  0  0  0  0  0  0  0
    6.0690   -1.9970   22.5340 H   0  0  0  0  0  0  0  0  0  0  0  0
    7.1380   -2.7650   21.2920 H   0  0  0  0  0  0  0  0  0  0  0  0
    6.9340    0.1020   24.4390 H   0  0  0  0  0  0  0  0  0  0  0  0
    8.4530   -0.0670   25.3520 H   0  0  0  0  0  0  0  0  0  0  0  0
    8.9970   -2.5700   22.5720 H   0  0  0  0  0  0  0  0  0  0  0  0
  7  2  2  0
  8  3  2  0
  9  4  2  0
 10  5  2  0
 12 11  1  0
 15 14  1  0
 16  1  1  0
 16 11  2  0
 16 13  1  0
 17  7  1  0
 17 12  2  0
 18 13  2  0
 18 17  1  0
 19  5  1  0
 20 14  2  0
 21 15  2  0
 22 10  1  0
 23 19  2  0
 23 20  1  0
 24 21  1  0
 24 22  2  0
 24 23  1  0
 25  8  1  0
 26  9  1  0
 26 22  1  0
 27  7  1  0
 28 25  1  0
 29  8  1  0
 29 27  1  0
 31  6  1  0
 31 30  1  0
 32 26  1  0
 33 27  1  0
 34  6  1  0
 34 32  1  0
 35  9  1  0
 35 18  1  0
 35 33  1  0
 35 34  1  0
 10 36  1  0
 11 37  1  0
 12 38  1  0
 13 39  1  0
 14 40  1  0
 15 41  1  0
 19 42  1  0
 20 43  1  0
 21 44  1  0
 25 45  1  0
 28 46  1  0
 28 47  1  0
 28 48  1  0
 29 49  1  0
 29 50  1  0
 30 51  1  0
 30 52  1  0
 30 53  1  0
 31 54  1  0
 31 55  1  0
 32 56  1  0
 32 57  1  0
 33 58  1  0
 33 59  1  0
 34 60  1  0
M  END
>  <Favorite_cresset>
false

>  <Protein_cresset>
sars_P

>  <MW_cresset>
493.0

>  <#Atoms_cresset>
35

>  <SlogP_cresset>
2.8

>  <TPSA_cresset>
91.8

>  <Flexibility_cresset>
4.9

>  <HBA_cresset>
8

>  <HBD_cresset>
1

>  <Rof5_cresset>
0

>  <Confs_cresset>
0

>  <Poses_cresset>
0

$$$$
predicted (40)
  xed2sdf           3D
 
 57 61  0  0  1  0  0  0  0  0999 V2000
   13.8160   -2.0220   22.8870 Cl  0  0  0  0  0  0  0  0  0  0  0  0
    7.3500   -5.1070   23.9690 N   0  0  0  0  0  0  0  0  0  0  0  0
   10.1470    3.5500   23.9170 O   0  0  0  0  0  0  0  0  0  0  0  0
    7.8990    5.3650   24.5150 O   0  0  0  0  0  0  0  0  0  0  0  0
    8.3430    1.3900   21.4210 O   0  0  0  0  0  0  0  0  0  0  0  0
    7.6130   -3.9900   24.1000 C   0  0  0  0  0  0  0  0  0  0  0  0
    6.0940   -0.1140   17.7910 N   0  0  0  0  0  0  0  0  0  0  0  0
    9.7770    2.3890   23.8760 C   0  0  0  0  0  0  0  0  0  0  0  0
    7.4560    4.3930   23.9190 C   0  0  0  0  0  0  0  0  0  0  0  0
    8.1190    0.2870   21.8530 C   0  0  0  0  0  0  0  0  0  0  0  0
    6.7610   -0.5360   18.8860 C   0  0  0  0  0  0  0  0  0  0  0  0
   13.0630    0.5350   23.4140 C   0  0  0  0  0  0  0  0  0  0  0  0
   12.1230    1.5460   23.6140 C   0  0  0  0  0  0  0  0  0  0  0  0
   11.2600   -1.0410   22.9830 C   0  0  0  0  0  0  0  0  0  0  0  0
    2.7060    1.8390   20.6530 C   0  0  0  0  0  0  0  0  0  0  0  0
    3.4460    1.4940   21.7930 C   0  0  0  0  0  0  0  0  0  0  0  0
   12.6300   -0.7550   23.1000 C   0  0  0  0  0  0  0  0  0  0  0  0
   10.7430    1.2770   23.5230 C   0  0  0  0  0  0  0  0  0  0  0  0
   10.2850   -0.0260   23.1810 C   0  0  0  0  0  0  0  0  0  0  0  0
    4.9600    0.5900   17.9680 C   0  0  0  0  0  0  0  0  0  0  0  0
    3.1980    1.5310   19.3780 C   0  0  0  0  0  0  0  0  0  0  0  0
    4.6570    0.7970   21.6510 C   0  0  0  0  0  0  0  0  0  0  0  0
    6.3540   -0.2510   20.1980 C   0  0  0  0  0  0  0  0  0  0  0  0
    4.4200    0.8510   19.2350 C   0  0  0  0  0  0  0  0  0  0  0  0
    5.1430    0.4540   20.3770 C   0  0  0  0  0  0  0  0  0  0  0  0
    6.8870    4.4940   22.6550 N   0  0  0  0  0  0  0  0  0  0  0  0
    7.1990   -0.5770   21.2960 N   0  0  0  0  0  0  0  0  0  0  0  0
    8.4700    2.0010   24.1910 N   0  0  0  0  0  0  0  0  0  0  0  0
    6.6980    5.7500   21.8950 C   0  0  0  0  0  0  0  0  0  0  0  0
    7.3950    2.9760   24.5690 C   0  0  0  0  0  0  0  0  0  0  0  0
    7.9670   -2.5660   24.3180 C   0  0  0  0  0  0  0  0  0  0  0  0
    7.0280   -1.7760   22.0980 C   0  0  0  0  0  0  0  0  0  0  0  0
    8.1180    0.5430   24.2880 C   0  0  0  0  0  0  0  0  0  0  0  0
    8.2630   -1.7930   23.0060 C   0  0  0  0  0  0  0  0  0  0  0  0
    8.7460   -0.2820   23.1230 C   0  0  0  0  0  0  0  0  0  0  0  0
    7.6830   -1.0830   18.7010 H   0  0  0  0  0  0  0  0  0  0  0  0
   14.1210    0.7650   23.5020 H   0  0  0  0  0  0  0  0  0  0  0  0
   12.4620    2.5400   23.8920 H   0  0  0  0  0  0  0  0  0  0  0  0
   11.0020   -2.0680   22.7560 H   0  0  0  0  0  0  0  0  0  0  0  0
    1.7590    2.3600   20.7550 H   0  0  0  0  0  0  0  0  0  0  0  0
    3.0850    1.7660   22.7830 H   0  0  0  0  0  0  0  0  0  0  0  0
    4.5080    1.0010   17.0690 H   0  0  0  0  0  0  0  0  0  0  0  0
    2.6240    1.8260   18.5120 H   0  0  0  0  0  0  0  0  0  0  0  0
    5.2170    0.5370   22.5390 H   0  0  0  0  0  0  0  0  0  0  0  0
    6.5380    3.6450   22.2320 H   0  0  0  0  0  0  0  0  0  0  0  0
    5.6450    5.8330   21.6030 H   0  0  0  0  0  0  0  0  0  0  0  0
    7.3070    5.7270   20.9850 H   0  0  0  0  0  0  0  0  0  0  0  0
    6.9630    6.6370   22.4830 H   0  0  0  0  0  0  0  0  0  0  0  0
    6.4270    2.5490   24.2850 H   0  0  0  0  0  0  0  0  0  0  0  0
    7.4170    3.1120   25.6570 H   0  0  0  0  0  0  0  0  0  0  0  0
    8.8480   -2.5220   24.9660 H   0  0  0  0  0  0  0  0  0  0  0  0
    7.1430   -2.0880   24.8650 H   0  0  0  0  0  0  0  0  0  0  0  0
    6.1100   -1.6970   22.6990 H   0  0  0  0  0  0  0  0  0  0  0  0
    6.9940   -2.6820   21.4810 H   0  0  0  0  0  0  0  0  0  0  0  0
    7.0290    0.4230   24.2900 H   0  0  0  0  0  0  0  0  0  0  0  0
    8.4870    0.1430   25.2390 H   0  0  0  0  0  0  0  0  0  0  0  0
    9.0020   -2.3530   22.4220 H   0  0  0  0  0  0  0  0  0  0  0  0
  6  2  3  0
  8  3  2  0
  9  4  2  0
 10  5  2  0
 11  7  2  0
 13 12  1  0
 16 15  1  0
 17  1  1  0
 17 12  2  0
 17 14  1  0
 18  8  1  0
 18 13  2  0
 19 14  2  0
 19 18  1  0
 20  7  1  0
 21 15  2  0
 22 16  2  0
 23 11  1  0
 24 20  2  0
 24 21  1  0
 25 22  1  0
 25 23  2  0
 25 24  1  0
 26  9  1  0
 27 10  1  0
 27 23  1  0
 28  8  1  0
 29 26  1  0
 30  9  1  0
 30 28  1  0
 31  6  1  0
 32 27  1  0
 33 28  1  0
 34 31  1  0
 34 32  1  0
 35 10  1  0
 35 19  1  0
 35 33  1  0
 35 34  1  0
 11 36  1  0
 12 37  1  0
 13 38  1  0
 14 39  1  0
 15 40  1  0
 16 41  1  0
 20 42  1  0
 21 43  1  0
 22 44  1  0
 26 45  1  0
 29 46  1  0
 29 47  1  0
 29 48  1  0
 30 49  1  0
 30 50  1  0
 31 51  1  0
 31 52  1  0
 32 53  1  0
 32 54  1  0
 33 55  1  0
 33 56  1  0
 34 57  1  0
M  END
>  <Favorite_cresset>
false

>  <Protein_cresset>
sars_P

>  <MW_cresset>
487.9

>  <#Atoms_cresset>
35

>  <SlogP_cresset>
2.9

>  <TPSA_cresset>
106.4

>  <Flexibility_cresset>
3.9

>  <HBA_cresset>
8

>  <HBD_cresset>
1

>  <Rof5_cresset>
0

>  <Confs_cresset>
0

>  <Poses_cresset>
0

$$$$
predicted (41)
  xed2sdf           3D
 
 67 72  0  0  1  0  0  0  0  0999 V2000
   13.6900   -2.3130   22.9190 Cl  0  0  0  0  0  0  0  0  0  0  0  0
   10.1140    3.3750   23.7960 O   0  0  0  0  0  0  0  0  0  0  0  0
    8.3900    1.2230   21.4170 O   0  0  0  0  0  0  0  0  0  0  0  0
    5.0240    8.3850   21.7510 O   0  0  0  0  0  0  0  0  0  0  0  0
    4.3010    8.7940   24.0990 O   0  0  0  0  0  0  0  0  0  0  0  0
    6.0590   -0.1300   17.8580 N   0  0  0  0  0  0  0  0  0  0  0  0
    9.7270    2.2190   23.8490 C   0  0  0  0  0  0  0  0  0  0  0  0
    8.0990    0.1400   21.8780 C   0  0  0  0  0  0  0  0  0  0  0  0
    6.7350   -0.5590   18.9390 C   0  0  0  0  0  0  0  0  0  0  0  0
   12.9920    0.2810   23.3850 C   0  0  0  0  0  0  0  0  0  0  0  0
   12.0710    1.3060   23.6280 C   0  0  0  0  0  0  0  0  0  0  0  0
   11.1500   -1.2870   23.1280 C   0  0  0  0  0  0  0  0  0  0  0  0
    2.7240    1.8500   20.7740 C   0  0  0  0  0  0  0  0  0  0  0  0
    3.4110    1.4000   21.9080 C   0  0  0  0  0  0  0  0  0  0  0  0
   12.5300   -1.0200   23.1660 C   0  0  0  0  0  0  0  0  0  0  0  0
   10.6780    1.0630   23.5890 C   0  0  0  0  0  0  0  0  0  0  0  0
   10.1930   -0.2440   23.3040 C   0  0  0  0  0  0  0  0  0  0  0  0
    4.9370    0.5880   18.0580 C   0  0  0  0  0  0  0  0  0  0  0  0
    3.2340    1.5980   19.4920 C   0  0  0  0  0  0  0  0  0  0  0  0
    4.6200    0.6980   21.7570 C   0  0  0  0  0  0  0  0  0  0  0  0
    6.3230   -0.3010   20.2520 C   0  0  0  0  0  0  0  0  0  0  0  0
    4.4260    0.8720   19.3370 C   0  0  0  0  0  0  0  0  0  0  0  0
    5.1280    0.4190   20.4670 C   0  0  0  0  0  0  0  0  0  0  0  0
    6.1160    4.9280   23.4060 N   0  0  0  0  0  0  0  0  0  0  0  0
    7.1640   -0.6840   21.3130 N   0  0  0  0  0  0  0  0  0  0  0  0
    8.3940    1.8950   24.1370 N   0  0  0  0  0  0  0  0  0  0  0  0
    6.7460    3.6040   23.1140 C   0  0  0  0  0  0  0  0  0  0  0  0
    7.3970    2.9820   24.3960 C   0  0  0  0  0  0  0  0  0  0  0  0
    4.8930    5.1630   22.6080 C   0  0  0  0  0  0  0  0  0  0  0  0
    7.0900    6.0360   23.2340 C   0  0  0  0  0  0  0  0  0  0  0  0
    7.7030   -2.6150   24.3980 C   0  0  0  0  0  0  0  0  0  0  0  0
    6.9620   -1.9040   22.0620 C   0  0  0  0  0  0  0  0  0  0  0  0
    7.9640    0.4660   24.2670 C   0  0  0  0  0  0  0  0  0  0  0  0
    4.0070    6.3260   23.1260 C   0  0  0  0  0  0  0  0  0  0  0  0
    6.5590    7.3980   23.7650 C   0  0  0  0  0  0  0  0  0  0  0  0
    8.1190   -1.9210   23.0850 C   0  0  0  0  0  0  0  0  0  0  0  0
    8.6450   -0.4280   23.1840 C   0  0  0  0  0  0  0  0  0  0  0  0
    4.9120    7.9100   23.1220 S   0  0  0  0  0  0  0  0  0  0  0  0
    7.6650   -1.0940   18.7570 H   0  0  0  0  0  0  0  0  0  0  0  0
   14.0610    0.4850   23.3970 H   0  0  0  0  0  0  0  0  0  0  0  0
   12.4500    2.3040   23.8370 H   0  0  0  0  0  0  0  0  0  0  0  0
   10.8670   -2.3230   22.9720 H   0  0  0  0  0  0  0  0  0  0  0  0
    1.7910    2.3920   20.8860 H   0  0  0  0  0  0  0  0  0  0  0  0
    2.9960    1.5800   22.8990 H   0  0  0  0  0  0  0  0  0  0  0  0
    4.4610    0.9730   17.1630 H   0  0  0  0  0  0  0  0  0  0  0  0
    2.6880    1.9320   18.6220 H   0  0  0  0  0  0  0  0  0  0  0  0
    5.1330    0.3570   22.6460 H   0  0  0  0  0  0  0  0  0  0  0  0
    5.9910    2.9100   22.7240 H   0  0  0  0  0  0  0  0  0  0  0  0
    7.5080    3.7230   22.3290 H   0  0  0  0  0  0  0  0  0  0  0  0
    7.9010    3.7810   24.9550 H   0  0  0  0  0  0  0  0  0  0  0  0
    6.5930    2.5990   25.0370 H   0  0  0  0  0  0  0  0  0  0  0  0
    5.2140    5.3910   21.5890 H   0  0  0  0  0  0  0  0  0  0  0  0
    4.2830    4.2520   22.6120 H   0  0  0  0  0  0  0  0  0  0  0  0
    7.9920    5.7990   23.8070 H   0  0  0  0  0  0  0  0  0  0  0  0
    7.3780    6.1180   22.1740 H   0  0  0  0  0  0  0  0  0  0  0  0
    6.6950   -2.3020   24.7060 H   0  0  0  0  0  0  0  0  0  0  0  0
    8.4190   -2.3970   25.1990 H   0  0  0  0  0  0  0  0  0  0  0  0
    7.6810   -3.7040   24.2530 H   0  0  0  0  0  0  0  0  0  0  0  0
    5.9830   -1.8520   22.5550 H   0  0  0  0  0  0  0  0  0  0  0  0
    6.9890   -2.7750   21.3930 H   0  0  0  0  0  0  0  0  0  0  0  0
    6.8710    0.3980   24.1770 H   0  0  0  0  0  0  0  0  0  0  0  0
    8.2550    0.1040   25.2580 H   0  0  0  0  0  0  0  0  0  0  0  0
    3.0950    6.4200   22.5160 H   0  0  0  0  0  0  0  0  0  0  0  0
    3.7150    6.1370   24.1640 H   0  0  0  0  0  0  0  0  0  0  0  0
    6.4640    7.3190   24.8540 H   0  0  0  0  0  0  0  0  0  0  0  0
    7.2550    8.2140   23.5500 H   0  0  0  0  0  0  0  0  0  0  0  0
    8.8840   -2.5350   22.6020 H   0  0  0  0  0  0  0  0  0  0  0  0
  7  2  2  0
  8  3  2  0
  9  6  2  0
 11 10  1  0
 14 13  1  0
 15  1  1  0
 15 10  2  0
 15 12  1  0
 16  7  1  0
 16 11  2  0
 17 12  2  0
 17 16  1  0
 18  6  1  0
 19 13  2  0
 20 14  2  0
 21  9  1  0
 22 18  2  0
 22 19  1  0
 23 20  1  0
 23 21  2  0
 23 22  1  0
 25  8  1  0
 25 21  1  0
 26  7  1  0
 27 24  1  0
 28 26  1  0
 28 27  1  0
 29 24  1  0
 30 24  1  0
 32 25  1  0
 33 26  1  0
 34 29  1  0
 35 30  1  0
 36 31  1  0
 36 32  1  0
 37  8  1  0
 37 17  1  0
 37 33  1  0
 37 36  1  0
 38  4  2  0
 38  5  2  0
 38 34  1  0
 38 35  1  0
  9 39  1  0
 10 40  1  0
 11 41  1  0
 12 42  1  0
 13 43  1  0
 14 44  1  0
 18 45  1  0
 19 46  1  0
 20 47  1  0
 27 48  1  0
 27 49  1  0
 28 50  1  0
 28 51  1  0
 29 52  1  0
 29 53  1  0
 30 54  1  0
 30 55  1  0
 31 56  1  0
 31 57  1  0
 31 58  1  0
 32 59  1  0
 32 60  1  0
 33 61  1  0
 33 62  1  0
 34 63  1  0
 34 64  1  0
 35 65  1  0
 35 66  1  0
 36 67  1  0
M  END
>  <Favorite_cresset>
false

>  <Protein_cresset>
sars_P

>  <MW_cresset>
553.1

>  <#Atoms_cresset>
38

>  <SlogP_cresset>
3.0

>  <TPSA_cresset>
90.9

>  <Flexibility_cresset>
4.5

>  <HBA_cresset>
8

>  <HBD_cresset>
0

>  <Rof5_cresset>
1

>  <Confs_cresset>
0

>  <Poses_cresset>
0

$$$$
predicted (42)
  xed2sdf           3D
 
 61 66  0  0  1  0  0  0  0  0999 V2000
   13.8140   -1.9860   23.3500 Cl  0  0  0  0  0  0  0  0  0  0  0  0
   10.1420    3.6930   23.8140 O   0  0  0  0  0  0  0  0  0  0  0  0
    5.9480    3.3330   23.3390 O   0  0  0  0  0  0  0  0  0  0  0  0
    8.5800    1.3890   21.5670 O   0  0  0  0  0  0  0  0  0  0  0  0
    5.4090   -4.6920   24.8000 N   0  0  0  0  0  0  0  0  0  0  0  0
    6.6620   -4.3780   24.3270 N   0  0  0  0  0  0  0  0  0  0  0  0
    5.8930   -2.8050   25.6250 N   0  0  0  0  0  0  0  0  0  0  0  0
    6.0740   -0.3430   18.1300 N   0  0  0  0  0  0  0  0  0  0  0  0
    4.9340   -3.7550   25.5840 N   0  0  0  0  0  0  0  0  0  0  0  0
    9.8250    2.5210   23.9710 C   0  0  0  0  0  0  0  0  0  0  0  0
    6.9150    3.8540   23.8630 C   0  0  0  0  0  0  0  0  0  0  0  0
    8.2170    0.3770   22.1200 C   0  0  0  0  0  0  0  0  0  0  0  0
    6.9420   -3.2100   24.8530 C   0  0  0  0  0  0  0  0  0  0  0  0
    6.7970   -0.5950   19.2390 C   0  0  0  0  0  0  0  0  0  0  0  0
   13.0980    0.6310   23.5520 C   0  0  0  0  0  0  0  0  0  0  0  0
   12.1680    1.6630   23.6920 C   0  0  0  0  0  0  0  0  0  0  0  0
   11.2780   -0.9710   23.4070 C   0  0  0  0  0  0  0  0  0  0  0  0
    2.7820    1.9510   20.8670 C   0  0  0  0  0  0  0  0  0  0  0  0
    3.5050    1.6360   22.0270 C   0  0  0  0  0  0  0  0  0  0  0  0
   12.6510   -0.6860   23.4360 C   0  0  0  0  0  0  0  0  0  0  0  0
   10.7880    1.3960   23.6850 C   0  0  0  0  0  0  0  0  0  0  0  0
   10.3240    0.0720   23.4910 C   0  0  0  0  0  0  0  0  0  0  0  0
    4.9290    0.3580   18.2720 C   0  0  0  0  0  0  0  0  0  0  0  0
    3.2590    1.5430   19.6120 C   0  0  0  0  0  0  0  0  0  0  0  0
    4.7200    0.9480   21.9300 C   0  0  0  0  0  0  0  0  0  0  0  0
    6.4060   -0.1670   20.5210 C   0  0  0  0  0  0  0  0  0  0  0  0
    4.4540    0.8190   19.5130 C   0  0  0  0  0  0  0  0  0  0  0  0
    5.1990    0.5370   20.6710 C   0  0  0  0  0  0  0  0  0  0  0  0
    7.3930    5.0950   23.4650 N   0  0  0  0  0  0  0  0  0  0  0  0
    7.2260   -0.4410   21.6350 N   0  0  0  0  0  0  0  0  0  0  0  0
    8.5790    2.1430   24.4710 N   0  0  0  0  0  0  0  0  0  0  0  0
    6.8060    5.8160   22.3280 C   0  0  0  0  0  0  0  0  0  0  0  0
    7.6770    3.1810   25.0070 C   0  0  0  0  0  0  0  0  0  0  0  0
    8.2320   -2.4580   24.6540 C   0  0  0  0  0  0  0  0  0  0  0  0
    7.0220   -1.6080   22.4610 C   0  0  0  0  0  0  0  0  0  0  0  0
    8.1460    0.7170   24.5640 C   0  0  0  0  0  0  0  0  0  0  0  0
    8.3080   -1.6560   23.3270 C   0  0  0  0  0  0  0  0  0  0  0  0
    8.7960   -0.1550   23.4310 C   0  0  0  0  0  0  0  0  0  0  0  0
    5.7830   -1.9510   26.1510 H   0  0  0  0  0  0  0  0  0  0  0  0
    7.7130   -1.1660   19.0970 H   0  0  0  0  0  0  0  0  0  0  0  0
   14.1600    0.8490   23.5550 H   0  0  0  0  0  0  0  0  0  0  0  0
   12.5360    2.6720   23.8390 H   0  0  0  0  0  0  0  0  0  0  0  0
   10.9780   -2.0110   23.3440 H   0  0  0  0  0  0  0  0  0  0  0  0
    1.8580    2.5140   20.9430 H   0  0  0  0  0  0  0  0  0  0  0  0
    3.1310    1.9350   23.0010 H   0  0  0  0  0  0  0  0  0  0  0  0
    4.3650    0.5410   17.3630 H   0  0  0  0  0  0  0  0  0  0  0  0
    2.7020    1.7910   18.7160 H   0  0  0  0  0  0  0  0  0  0  0  0
    5.2830    0.7420   22.8380 H   0  0  0  0  0  0  0  0  0  0  0  0
    8.2610    5.4390   23.8590 H   0  0  0  0  0  0  0  0  0  0  0  0
    5.7110    5.7150   22.3640 H   0  0  0  0  0  0  0  0  0  0  0  0
    7.2010    5.3920   21.3900 H   0  0  0  0  0  0  0  0  0  0  0  0
    7.0570    6.8830   22.4010 H   0  0  0  0  0  0  0  0  0  0  0  0
    6.9530    2.7510   25.7070 H   0  0  0  0  0  0  0  0  0  0  0  0
    8.2580    3.9400   25.5470 H   0  0  0  0  0  0  0  0  0  0  0  0
    9.0460   -3.1930   24.6450 H   0  0  0  0  0  0  0  0  0  0  0  0
    8.4430   -1.8080   25.5110 H   0  0  0  0  0  0  0  0  0  0  0  0
    6.1160   -1.4530   23.0580 H   0  0  0  0  0  0  0  0  0  0  0  0
    6.8970   -2.4980   21.8300 H   0  0  0  0  0  0  0  0  0  0  0  0
    7.0480    0.6620   24.5160 H   0  0  0  0  0  0  0  0  0  0  0  0
    8.4730    0.3550   25.5460 H   0  0  0  0  0  0  0  0  0  0  0  0
    9.0050   -2.1960   22.6730 H   0  0  0  0  0  0  0  0  0  0  0  0
  6  5  1  0
  9  5  2  0
  9  7  1  0
 10  2  2  0
 11  3  2  0
 12  4  2  0
 13  6  2  0
 13  7  1  0
 14  8  2  0
 16 15  1  0
 19 18  1  0
 20  1  1  0
 20 15  2  0
 20 17  1  0
 21 10  1  0
 21 16  2  0
 22 17  2  0
 22 21  1  0
 23  8  1  0
 24 18  2  0
 25 19  2  0
 26 14  1  0
 27 23  2  0
 27 24  1  0
 28 25  1  0
 28 26  2  0
 28 27  1  0
 29 11  1  0
 30 12  1  0
 30 26  1  0
 31 10  1  0
 32 29  1  0
 33 11  1  0
 33 31  1  0
 34 13  1  0
 35 30  1  0
 36 31  1  0
 37 34  1  0
 37 35  1  0
 38 12  1  0
 38 22  1  0
 38 36  1  0
 38 37  1  0
  7 39  1  0
 14 40  1  0
 15 41  1  0
 16 42  1  0
 17 43  1  0
 18 44  1  0
 19 45  1  0
 23 46  1  0
 24 47  1  0
 25 48  1  0
 29 49  1  0
 32 50  1  0
 32 51  1  0
 32 52  1  0
 33 53  1  0
 33 54  1  0
 34 55  1  0
 34 56  1  0
 35 57  1  0
 35 58  1  0
 36 59  1  0
 36 60  1  0
 37 61  1  0
M  END
>  <Favorite_cresset>
false

>  <Protein_cresset>
sars_P

>  <MW_cresset>
531.0

>  <#Atoms_cresset>
38

>  <SlogP_cresset>
1.8

>  <TPSA_cresset>
137.1

>  <Flexibility_cresset>
4.9

>  <HBA_cresset>
11

>  <HBD_cresset>
2

>  <Rof5_cresset>
2

>  <Confs_cresset>
0

>  <Poses_cresset>
0

$$$$
predicted (43)
  xed2sdf           3D
 
 62 67  0  0  1  0  0  0  0  0999 V2000
   10.2580    3.0440   23.9880 O   0  0  0  0  0  0  0  0  0  0  0  0
    8.6470    1.0740   21.5880 O   0  0  0  0  0  0  0  0  0  0  0  0
    6.1700   -0.2420   18.0030 N   0  0  0  0  0  0  0  0  0  0  0  0
    5.1240    4.2940   23.4650 N   0  0  0  0  0  0  0  0  0  0  0  0
    9.9320    1.8720   24.0750 C   0  0  0  0  0  0  0  0  0  0  0  0
    8.2540    0.0210   22.0420 C   0  0  0  0  0  0  0  0  0  0  0  0
    6.1340    4.3820   22.6150 C   0  0  0  0  0  0  0  0  0  0  0  0
    6.8570   -0.6190   19.1000 C   0  0  0  0  0  0  0  0  0  0  0  0
   13.1410   -0.1250   23.6690 C   0  0  0  0  0  0  0  0  0  0  0  0
   12.2610    0.9610   23.7660 C   0  0  0  0  0  0  0  0  0  0  0  0
   11.2610   -1.6220   23.3440 C   0  0  0  0  0  0  0  0  0  0  0  0
    2.6940    1.5810   20.8470 C   0  0  0  0  0  0  0  0  0  0  0  0
    3.3610    1.1220   21.9910 C   0  0  0  0  0  0  0  0  0  0  0  0
    7.2520    3.6800   23.1200 C   0  0  0  0  0  0  0  0  0  0  0  0
   12.6360   -1.4150   23.5020 C   0  0  0  0  0  0  0  0  0  0  0  0
   10.8710    0.7500   23.7000 C   0  0  0  0  0  0  0  0  0  0  0  0
   10.3580   -0.5350   23.4040 C   0  0  0  0  0  0  0  0  0  0  0  0
    5.0170    0.4370   18.1840 C   0  0  0  0  0  0  0  0  0  0  0  0
    3.2540    1.3760   19.5800 C   0  0  0  0  0  0  0  0  0  0  0  0
    4.6060    0.4870   21.8720 C   0  0  0  0  0  0  0  0  0  0  0  0
    6.4170   -0.3500   20.4050 C   0  0  0  0  0  0  0  0  0  0  0  0
    6.9080    3.1560   24.3260 C   0  0  0  0  0  0  0  0  0  0  0  0
    4.4790    0.7060   19.4520 C   0  0  0  0  0  0  0  0  0  0  0  0
    5.1720    0.2830   20.5980 C   0  0  0  0  0  0  0  0  0  0  0  0
    7.2240   -0.7170   21.5010 N   0  0  0  0  0  0  0  0  0  0  0  0
    8.6970    1.4580   24.5890 N   0  0  0  0  0  0  0  0  0  0  0  0
    5.6070    3.5710   24.5300 N   0  0  0  0  0  0  0  0  0  0  0  0
    7.8200    2.4200   25.2760 C   0  0  0  0  0  0  0  0  0  0  0  0
    3.7460    2.3190   25.6580 C   0  0  0  0  0  0  0  0  0  0  0  0
    4.8100    3.4280   25.7500 C   0  0  0  0  0  0  0  0  0  0  0  0
    8.0210   -2.9800   24.2750 C   0  0  0  0  0  0  0  0  0  0  0  0
    7.0730   -2.0080   22.1270 C   0  0  0  0  0  0  0  0  0  0  0  0
    8.2240    0.0480   24.5180 C   0  0  0  0  0  0  0  0  0  0  0  0
    8.3020   -2.1400   23.0260 C   0  0  0  0  0  0  0  0  0  0  0  0
    8.8270   -0.6830   23.2820 C   0  0  0  0  0  0  0  0  0  0  0  0
   13.4780   -2.4710   23.4960 F   0  0  0  0  0  0  0  0  0  0  0  0
    6.0230    4.9590   21.7070 H   0  0  0  0  0  0  0  0  0  0  0  0
    7.7920   -1.1570   18.9290 H   0  0  0  0  0  0  0  0  0  0  0  0
   14.2110    0.0280   23.7350 H   0  0  0  0  0  0  0  0  0  0  0  0
   12.6700    1.9540   23.9350 H   0  0  0  0  0  0  0  0  0  0  0  0
   10.9180   -2.6420   23.2310 H   0  0  0  0  0  0  0  0  0  0  0  0
    1.7480    2.1060   20.9430 H   0  0  0  0  0  0  0  0  0  0  0  0
    2.9130    1.2570   22.9690 H   0  0  0  0  0  0  0  0  0  0  0  0
    8.2160    3.6200   22.6440 H   0  0  0  0  0  0  0  0  0  0  0  0
    4.5130    0.7660   17.2800 H   0  0  0  0  0  0  0  0  0  0  0  0
    2.7460    1.7270   18.6930 H   0  0  0  0  0  0  0  0  0  0  0  0
    5.1050    0.1410   22.7740 H   0  0  0  0  0  0  0  0  0  0  0  0
    7.2400    1.8980   26.0480 H   0  0  0  0  0  0  0  0  0  0  0  0
    8.4520    3.1510   25.7940 H   0  0  0  0  0  0  0  0  0  0  0  0
    2.9220    2.6330   25.0040 H   0  0  0  0  0  0  0  0  0  0  0  0
    3.3330    2.1070   26.6520 H   0  0  0  0  0  0  0  0  0  0  0  0
    4.1800    1.3980   25.2500 H   0  0  0  0  0  0  0  0  0  0  0  0
    4.3110    4.3850   25.9480 H   0  0  0  0  0  0  0  0  0  0  0  0
    5.4950    3.2310   26.5840 H   0  0  0  0  0  0  0  0  0  0  0  0
    7.0960   -2.6470   24.7620 H   0  0  0  0  0  0  0  0  0  0  0  0
    8.8510   -2.8810   24.9810 H   0  0  0  0  0  0  0  0  0  0  0  0
    7.9070   -4.0370   24.0030 H   0  0  0  0  0  0  0  0  0  0  0  0
    6.1410   -2.0290   22.6990 H   0  0  0  0  0  0  0  0  0  0  0  0
    7.0520   -2.8000   21.3710 H   0  0  0  0  0  0  0  0  0  0  0  0
    7.1290    0.0270   24.4710 H   0  0  0  0  0  0  0  0  0  0  0  0
    8.5360   -0.4580   25.4410 H   0  0  0  0  0  0  0  0  0  0  0  0
    9.0200   -2.6610   22.3850 H   0  0  0  0  0  0  0  0  0  0  0  0
  5  1  2  0
  6  2  2  0
  7  4  2  0
  8  3  2  0
 10  9  1  0
 13 12  1  0
 14  7  1  0
 15  9  2  0
 15 11  1  0
 16  5  1  0
 16 10  2  0
 17 11  2  0
 17 16  1  0
 18  3  1  0
 19 12  2  0
 20 13  2  0
 21  8  1  0
 22 14  2  0
 23 18  2  0
 23 19  1  0
 24 20  1  0
 24 21  2  0
 24 23  1  0
 25  6  1  0
 25 21  1  0
 26  5  1  0
 27  4  1  0
 27 22  1  0
 28 22  1  0
 28 26  1  0
 30 27  1  0
 30 29  1  0
 32 25  1  0
 33 26  1  0
 34 31  1  0
 34 32  1  0
 35  6  1  0
 35 17  1  0
 35 33  1  0
 35 34  1  0
 36 15  1  0
  7 37  1  0
  8 38  1  0
  9 39  1  0
 10 40  1  0
 11 41  1  0
 12 42  1  0
 13 43  1  0
 14 44  1  0
 18 45  1  0
 19 46  1  0
 20 47  1  0
 28 48  1  0
 28 49  1  0
 29 50  1  0
 29 51  1  0
 29 52  1  0
 30 53  1  0
 30 54  1  0
 31 55  1  0
 31 56  1  0
 31 57  1  0
 32 58  1  0
 32 59  1  0
 33 60  1  0
 33 61  1  0
 34 62  1  0
M  END
>  <Favorite_cresset>
false

>  <Protein_cresset>
sars_P

>  <MW_cresset>
483.5

>  <#Atoms_cresset>
36

>  <SlogP_cresset>
4.4

>  <TPSA_cresset>
71.3

>  <Flexibility_cresset>
3.9

>  <HBA_cresset>
7

>  <HBD_cresset>
0

>  <Rof5_cresset>
0

>  <Confs_cresset>
0

>  <Poses_cresset>
0

$$$$
predicted (44)
  xed2sdf           3D
 
 56 60  0  0  1  0  0  0  0  0999 V2000
   13.6920   -1.9400   23.0200 Cl  0  0  0  0  0  0  0  0  0  0  0  0
    7.2480   -4.1080   24.5310 Cl  0  0  0  0  0  0  0  0  0  0  0  0
   10.0320    3.6490   23.9880 O   0  0  0  0  0  0  0  0  0  0  0  0
    7.1770    4.2650   25.9900 O   0  0  0  0  0  0  0  0  0  0  0  0
    8.5010    1.2200   21.5250 O   0  0  0  0  0  0  0  0  0  0  0  0
    6.0590   -0.3390   18.0780 N   0  0  0  0  0  0  0  0  0  0  0  0
    9.6650    2.4860   24.0720 C   0  0  0  0  0  0  0  0  0  0  0  0
    7.1210    4.3390   24.7740 C   0  0  0  0  0  0  0  0  0  0  0  0
    8.1450    0.2090   22.0920 C   0  0  0  0  0  0  0  0  0  0  0  0
    6.7540   -0.7260   19.1680 C   0  0  0  0  0  0  0  0  0  0  0  0
   12.9460    0.6340   23.5440 C   0  0  0  0  0  0  0  0  0  0  0  0
   12.0090    1.6280   23.8240 C   0  0  0  0  0  0  0  0  0  0  0  0
   11.1450   -0.9830   23.3380 C   0  0  0  0  0  0  0  0  0  0  0  0
    2.8520    1.8960   20.9480 C   0  0  0  0  0  0  0  0  0  0  0  0
    3.5440    1.4700   22.0910 C   0  0  0  0  0  0  0  0  0  0  0  0
   12.5160   -0.6740   23.3170 C   0  0  0  0  0  0  0  0  0  0  0  0
   10.6250    1.3410   23.8490 C   0  0  0  0  0  0  0  0  0  0  0  0
   10.1680    0.0180   23.5800 C   0  0  0  0  0  0  0  0  0  0  0  0
    4.9570    0.4180   18.2620 C   0  0  0  0  0  0  0  0  0  0  0  0
    3.3130    1.5490   19.6700 C   0  0  0  0  0  0  0  0  0  0  0  0
    4.7140    0.7100   21.9540 C   0  0  0  0  0  0  0  0  0  0  0  0
    6.3750   -0.3770   20.4760 C   0  0  0  0  0  0  0  0  0  0  0  0
    4.4810    0.7870   19.5290 C   0  0  0  0  0  0  0  0  0  0  0  0
    5.1930    0.3690   20.6710 C   0  0  0  0  0  0  0  0  0  0  0  0
    6.8470    5.5240   24.1020 N   0  0  0  0  0  0  0  0  0  0  0  0
    7.2360   -0.6690   21.5590 N   0  0  0  0  0  0  0  0  0  0  0  0
    8.3320    2.1490   24.2900 N   0  0  0  0  0  0  0  0  0  0  0  0
    6.6430    6.8370   24.7380 C   0  0  0  0  0  0  0  0  0  0  0  0
    7.3170    3.1370   23.8240 C   0  0  0  0  0  0  0  0  0  0  0  0
    7.5950   -2.3390   24.7820 C   0  0  0  0  0  0  0  0  0  0  0  0
    7.0730   -1.8520   22.3610 C   0  0  0  0  0  0  0  0  0  0  0  0
    7.9170    0.7270   24.4940 C   0  0  0  0  0  0  0  0  0  0  0  0
    8.1280   -1.7340   23.4760 C   0  0  0  0  0  0  0  0  0  0  0  0
    8.6310   -0.2260   23.4750 C   0  0  0  0  0  0  0  0  0  0  0  0
    7.6580   -1.3040   18.9790 H   0  0  0  0  0  0  0  0  0  0  0  0
   14.0070    0.8750   23.5040 H   0  0  0  0  0  0  0  0  0  0  0  0
   12.3670    2.6360   24.0110 H   0  0  0  0  0  0  0  0  0  0  0  0
   10.8870   -2.0170   23.1500 H   0  0  0  0  0  0  0  0  0  0  0  0
    1.9560    2.4970   21.0540 H   0  0  0  0  0  0  0  0  0  0  0  0
    3.1710    1.7230   23.0810 H   0  0  0  0  0  0  0  0  0  0  0  0
    4.4360    0.7350   17.3620 H   0  0  0  0  0  0  0  0  0  0  0  0
    2.7770    1.8870   18.7890 H   0  0  0  0  0  0  0  0  0  0  0  0
    5.2320    0.3840   22.8490 H   0  0  0  0  0  0  0  0  0  0  0  0
    6.8410    5.4890   23.0900 H   0  0  0  0  0  0  0  0  0  0  0  0
    5.5710    7.0110   24.8940 H   0  0  0  0  0  0  0  0  0  0  0  0
    7.1710    6.8880   25.6980 H   0  0  0  0  0  0  0  0  0  0  0  0
    7.0340    7.6260   24.0800 H   0  0  0  0  0  0  0  0  0  0  0  0
    6.3490    2.6630   23.6370 H   0  0  0  0  0  0  0  0  0  0  0  0
    7.6640    3.5500   22.8670 H   0  0  0  0  0  0  0  0  0  0  0  0
    6.6630   -1.8530   25.0990 H   0  0  0  0  0  0  0  0  0  0  0  0
    8.3480   -2.2700   25.5710 H   0  0  0  0  0  0  0  0  0  0  0  0
    6.0520   -1.8840   22.7610 H   0  0  0  0  0  0  0  0  0  0  0  0
    7.2570   -2.7460   21.7560 H   0  0  0  0  0  0  0  0  0  0  0  0
    6.8290    0.6540   24.3910 H   0  0  0  0  0  0  0  0  0  0  0  0
    8.1660    0.4320   25.5220 H   0  0  0  0  0  0  0  0  0  0  0  0
    8.9330   -2.3920   23.1530 H   0  0  0  0  0  0  0  0  0  0  0  0
  7  3  2  0
  8  4  2  0
  9  5  2  0
 10  6  2  0
 12 11  1  0
 15 14  1  0
 16  1  1  0
 16 11  2  0
 16 13  1  0
 17  7  1  0
 17 12  2  0
 18 13  2  0
 18 17  1  0
 19  6  1  0
 20 14  2  0
 21 15  2  0
 22 10  1  0
 23 19  2  0
 23 20  1  0
 24 21  1  0
 24 22  2  0
 24 23  1  0
 25  8  1  0
 26  9  1  0
 26 22  1  0
 27  7  1  0
 28 25  1  0
 29  8  1  0
 29 27  1  0
 30  2  1  0
 31 26  1  0
 32 27  1  0
 33 30  1  0
 33 31  1  0
 34  9  1  0
 34 18  1  0
 34 32  1  0
 34 33  1  0
 10 35  1  0
 11 36  1  0
 12 37  1  0
 13 38  1  0
 14 39  1  0
 15 40  1  0
 19 41  1  0
 20 42  1  0
 21 43  1  0
 25 44  1  0
 28 45  1  0
 28 46  1  0
 28 47  1  0
 29 48  1  0
 29 49  1  0
 30 50  1  0
 30 51  1  0
 31 52  1  0
 31 53  1  0
 32 54  1  0
 32 55  1  0
 33 56  1  0
M  END
>  <Favorite_cresset>
false

>  <Protein_cresset>
sars_P

>  <MW_cresset>
497.4

>  <#Atoms_cresset>
34

>  <SlogP_cresset>
3.3

>  <TPSA_cresset>
82.6

>  <Flexibility_cresset>
3.9

>  <HBA_cresset>
7

>  <HBD_cresset>
1

>  <Rof5_cresset>
0

>  <Confs_cresset>
0

>  <Poses_cresset>
0

$$$$
predicted (45)
  xed2sdf           3D
 
 60 64  0  0  1  0  0  0  0  0999 V2000
   13.7370   -2.2260   23.1700 Cl  0  0  0  0  0  0  0  0  0  0  0  0
   10.0890    3.4200   23.8720 O   0  0  0  0  0  0  0  0  0  0  0  0
    5.4970    3.1650   24.0490 O   0  0  0  0  0  0  0  0  0  0  0  0
    8.3900    1.3880   21.4850 O   0  0  0  0  0  0  0  0  0  0  0  0
    6.0660   -0.1060   17.8250 N   0  0  0  0  0  0  0  0  0  0  0  0
    6.8120   -2.7840   24.6610 O   0  0  0  0  0  0  0  0  0  0  0  0
    9.7750    2.2370   23.9250 C   0  0  0  0  0  0  0  0  0  0  0  0
    6.6870    3.4260   24.0820 C   0  0  0  0  0  0  0  0  0  0  0  0
    8.1430    0.2720   21.8870 C   0  0  0  0  0  0  0  0  0  0  0  0
    6.7630   -0.4950   18.9100 C   0  0  0  0  0  0  0  0  0  0  0  0
   13.0440    0.4140   23.4330 C   0  0  0  0  0  0  0  0  0  0  0  0
   12.1080    1.4370   23.6060 C   0  0  0  0  0  0  0  0  0  0  0  0
   11.2360   -1.1910   23.1540 C   0  0  0  0  0  0  0  0  0  0  0  0
    2.6710    1.7950   20.7410 C   0  0  0  0  0  0  0  0  0  0  0  0
    3.3920    1.3850   21.8690 C   0  0  0  0  0  0  0  0  0  0  0  0
   12.6030   -0.9050   23.2540 C   0  0  0  0  0  0  0  0  0  0  0  0
   10.7360    1.1480   23.5600 C   0  0  0  0  0  0  0  0  0  0  0  0
   10.2800   -0.1570   23.2650 C   0  0  0  0  0  0  0  0  0  0  0  0
    4.9350    0.5970   18.0260 C   0  0  0  0  0  0  0  0  0  0  0  0
    3.1930    1.5530   19.4630 C   0  0  0  0  0  0  0  0  0  0  0  0
    4.6280    0.7330   21.7270 C   0  0  0  0  0  0  0  0  0  0  0  0
    6.3660   -0.2020   20.2250 C   0  0  0  0  0  0  0  0  0  0  0  0
    4.4170    0.8810   19.3060 C   0  0  0  0  0  0  0  0  0  0  0  0
    5.1450    0.4710   20.4380 C   0  0  0  0  0  0  0  0  0  0  0  0
    7.2740    4.3670   23.2490 N   0  0  0  0  0  0  0  0  0  0  0  0
    7.2170   -0.5570   21.2990 N   0  0  0  0  0  0  0  0  0  0  0  0
    8.5390    1.8030   24.4010 N   0  0  0  0  0  0  0  0  0  0  0  0
    6.5470   -3.6600   25.7660 C   0  0  0  0  0  0  0  0  0  0  0  0
    6.5220    5.1490   22.2670 C   0  0  0  0  0  0  0  0  0  0  0  0
    7.6450    2.7520   25.0760 C   0  0  0  0  0  0  0  0  0  0  0  0
    8.1840   -2.7720   24.2080 C   0  0  0  0  0  0  0  0  0  0  0  0
    7.0480   -1.7860   22.0480 C   0  0  0  0  0  0  0  0  0  0  0  0
    8.0960    0.3740   24.3400 C   0  0  0  0  0  0  0  0  0  0  0  0
    8.2960   -1.8560   22.9500 C   0  0  0  0  0  0  0  0  0  0  0  0
    8.7520   -0.3710   23.1490 C   0  0  0  0  0  0  0  0  0  0  0  0
    7.6910   -1.0350   18.7280 H   0  0  0  0  0  0  0  0  0  0  0  0
   14.1020    0.6420   23.4870 H   0  0  0  0  0  0  0  0  0  0  0  0
   12.4430    2.4490   23.8250 H   0  0  0  0  0  0  0  0  0  0  0  0
   10.9400   -2.2250   23.0190 H   0  0  0  0  0  0  0  0  0  0  0  0
    1.7100    2.2910   20.8610 H   0  0  0  0  0  0  0  0  0  0  0  0
    2.9810    1.5600   22.8570 H   0  0  0  0  0  0  0  0  0  0  0  0
    4.4600    0.9770   17.1290 H   0  0  0  0  0  0  0  0  0  0  0  0
    2.6200    1.8490   18.5970 H   0  0  0  0  0  0  0  0  0  0  0  0
    5.1520    0.4070   22.6200 H   0  0  0  0  0  0  0  0  0  0  0  0
    8.2750    4.5060   23.3250 H   0  0  0  0  0  0  0  0  0  0  0  0
    5.4670   -3.7570   25.9110 H   0  0  0  0  0  0  0  0  0  0  0  0
    6.9800   -3.2580   26.6890 H   0  0  0  0  0  0  0  0  0  0  0  0
    6.9510   -4.6620   25.5810 H   0  0  0  0  0  0  0  0  0  0  0  0
    5.4960    5.2970   22.6290 H   0  0  0  0  0  0  0  0  0  0  0  0
    6.5130    4.6040   21.3170 H   0  0  0  0  0  0  0  0  0  0  0  0
    7.0000    6.1240   22.1110 H   0  0  0  0  0  0  0  0  0  0  0  0
    7.0700    2.2180   25.8390 H   0  0  0  0  0  0  0  0  0  0  0  0
    8.2500    3.5280   25.5670 H   0  0  0  0  0  0  0  0  0  0  0  0
    8.4990   -3.7870   23.9150 H   0  0  0  0  0  0  0  0  0  0  0  0
    8.8660   -2.4340   25.0030 H   0  0  0  0  0  0  0  0  0  0  0  0
    6.1250   -1.6890   22.6270 H   0  0  0  0  0  0  0  0  0  0  0  0
    6.9920   -2.6550   21.3820 H   0  0  0  0  0  0  0  0  0  0  0  0
    7.0020    0.3300   24.2300 H   0  0  0  0  0  0  0  0  0  0  0  0
    8.3830   -0.1220   25.2750 H   0  0  0  0  0  0  0  0  0  0  0  0
    9.0250   -2.3100   22.2760 H   0  0  0  0  0  0  0  0  0  0  0  0
  7  2  2  0
  8  3  2  0
  9  4  2  0
 10  5  2  0
 12 11  1  0
 15 14  1  0
 16  1  1  0
 16 11  2  0
 16 13  1  0
 17  7  1  0
 17 12  2  0
 18 13  2  0
 18 17  1  0
 19  5  1  0
 20 14  2  0
 21 15  2  0
 22 10  1  0
 23 19  2  0
 23 20  1  0
 24 21  1  0
 24 22  2  0
 24 23  1  0
 25  8  1  0
 26  9  1  0
 26 22  1  0
 27  7  1  0
 28  6  1  0
 29 25  1  0
 30  8  1  0
 30 27  1  0
 31  6  1  0
 32 26  1  0
 33 27  1  0
 34 31  1  0
 34 32  1  0
 35  9  1  0
 35 18  1  0
 35 33  1  0
 35 34  1  0
 10 36  1  0
 11 37  1  0
 12 38  1  0
 13 39  1  0
 14 40  1  0
 15 41  1  0
 19 42  1  0
 20 43  1  0
 21 44  1  0
 25 45  1  0
 28 46  1  0
 28 47  1  0
 28 48  1  0
 29 49  1  0
 29 50  1  0
 29 51  1  0
 30 52  1  0
 30 53  1  0
 31 54  1  0
 31 55  1  0
 32 56  1  0
 32 57  1  0
 33 58  1  0
 33 59  1  0
 34 60  1  0
M  END
>  <Favorite_cresset>
false

>  <Protein_cresset>
sars_P

>  <MW_cresset>
493.0

>  <#Atoms_cresset>
35

>  <SlogP_cresset>
2.7

>  <TPSA_cresset>
91.8

>  <Flexibility_cresset>
4.9

>  <HBA_cresset>
8

>  <HBD_cresset>
1

>  <Rof5_cresset>
0

>  <Confs_cresset>
0

>  <Poses_cresset>
0

$$$$
predicted (46)
  xed2sdf           3D
 
 64 68  0  0  1  0  0  0  0  0999 V2000
   13.5970   -2.4050   23.0550 Cl  0  0  0  0  0  0  0  0  0  0  0  0
   10.3940    3.5060   23.9000 O   0  0  0  0  0  0  0  0  0  0  0  0
    5.6340    3.2210   24.6730 O   0  0  0  0  0  0  0  0  0  0  0  0
    8.3160    1.6210   21.7350 O   0  0  0  0  0  0  0  0  0  0  0  0
    6.3440   -3.9100   25.9120 O   0  0  0  0  0  0  0  0  0  0  0  0
    6.6810   -4.3460   23.4950 O   0  0  0  0  0  0  0  0  0  0  0  0
    6.0750   -0.1400   17.9230 N   0  0  0  0  0  0  0  0  0  0  0  0
    9.9860    2.3620   24.0220 C   0  0  0  0  0  0  0  0  0  0  0  0
    6.7770    3.6110   24.4930 C   0  0  0  0  0  0  0  0  0  0  0  0
    8.1490    0.4710   22.0810 C   0  0  0  0  0  0  0  0  0  0  0  0
    6.8360   -0.4400   18.9940 C   0  0  0  0  0  0  0  0  0  0  0  0
   13.0890    0.2480   23.4410 C   0  0  0  0  0  0  0  0  0  0  0  0
   12.2430    1.3370   23.6640 C   0  0  0  0  0  0  0  0  0  0  0  0
   11.1390   -1.1930   23.2100 C   0  0  0  0  0  0  0  0  0  0  0  0
    2.8190    1.9060   20.8950 C   0  0  0  0  0  0  0  0  0  0  0  0
    3.6000    1.5660   22.0070 C   0  0  0  0  0  0  0  0  0  0  0  0
   12.5350   -1.0190   23.2300 C   0  0  0  0  0  0  0  0  0  0  0  0
   10.8430    1.1770   23.6590 C   0  0  0  0  0  0  0  0  0  0  0  0
   10.2590   -0.0890   23.3970 C   0  0  0  0  0  0  0  0  0  0  0  0
    4.9420    0.5610   18.1310 C   0  0  0  0  0  0  0  0  0  0  0  0
    3.2620    1.5940   19.5990 C   0  0  0  0  0  0  0  0  0  0  0  0
    4.8410    0.9420   21.8250 C   0  0  0  0  0  0  0  0  0  0  0  0
    6.5130   -0.0530   20.3010 C   0  0  0  0  0  0  0  0  0  0  0  0
    4.4980    0.9460   19.4120 C   0  0  0  0  0  0  0  0  0  0  0  0
    5.2970    0.6270   20.5280 C   0  0  0  0  0  0  0  0  0  0  0  0
    7.1030    4.5430   23.5190 N   0  0  0  0  0  0  0  0  0  0  0  0
    7.3790   -0.4060   21.3620 N   0  0  0  0  0  0  0  0  0  0  0  0
    8.7280    2.0640   24.5490 N   0  0  0  0  0  0  0  0  0  0  0  0
    7.2860   -2.0940   24.4540 N   0  0  0  0  0  0  0  0  0  0  0  0
    6.1290    4.9960   22.5160 C   0  0  0  0  0  0  0  0  0  0  0  0
    7.9600    3.0740   25.3140 C   0  0  0  0  0  0  0  0  0  0  0  0
    9.0720   -5.2070   26.2920 C   0  0  0  0  0  0  0  0  0  0  0  0
    7.1860   -1.6650   22.0320 C   0  0  0  0  0  0  0  0  0  0  0  0
    8.1840    0.6860   24.5690 C   0  0  0  0  0  0  0  0  0  0  0  0
    8.9130   -4.2800   25.0600 C   0  0  0  0  0  0  0  0  0  0  0  0
    8.0680   -1.6220   23.2890 C   0  0  0  0  0  0  0  0  0  0  0  0
    8.6990   -0.1690   23.3750 C   0  0  0  0  0  0  0  0  0  0  0  0
    7.1670   -3.7500   24.7280 S   0  0  0  0  0  0  0  0  0  0  0  0
    7.7480   -0.9990   18.8000 H   0  0  0  0  0  0  0  0  0  0  0  0
   14.1670    0.3950   23.4460 H   0  0  0  0  0  0  0  0  0  0  0  0
   12.6750    2.3120   23.8780 H   0  0  0  0  0  0  0  0  0  0  0  0
   10.7930   -2.2060   23.0540 H   0  0  0  0  0  0  0  0  0  0  0  0
    1.8520    2.3740   21.0460 H   0  0  0  0  0  0  0  0  0  0  0  0
    3.2340    1.7640   23.0120 H   0  0  0  0  0  0  0  0  0  0  0  0
    4.3830    0.8200   17.2400 H   0  0  0  0  0  0  0  0  0  0  0  0
    2.6390    1.8300   18.7440 H   0  0  0  0  0  0  0  0  0  0  0  0
    5.4140    0.6690   22.7030 H   0  0  0  0  0  0  0  0  0  0  0  0
    8.0730    4.8270   23.4230 H   0  0  0  0  0  0  0  0  0  0  0  0
    7.2870   -1.5130   25.2940 H   0  0  0  0  0  0  0  0  0  0  0  0
    5.3130    5.5460   22.9980 H   0  0  0  0  0  0  0  0  0  0  0  0
    5.7060    4.1230   22.0050 H   0  0  0  0  0  0  0  0  0  0  0  0
    6.6130    5.6470   21.7790 H   0  0  0  0  0  0  0  0  0  0  0  0
    8.6150    3.9090   25.6090 H   0  0  0  0  0  0  0  0  0  0  0  0
    7.5650    2.6040   26.2260 H   0  0  0  0  0  0  0  0  0  0  0  0
   10.1210   -5.5120   26.4060 H   0  0  0  0  0  0  0  0  0  0  0  0
    8.7790   -4.6970   27.2190 H   0  0  0  0  0  0  0  0  0  0  0  0
    8.4630   -6.1130   26.1850 H   0  0  0  0  0  0  0  0  0  0  0  0
    6.1250   -1.7630   22.3020 H   0  0  0  0  0  0  0  0  0  0  0  0
    7.4750   -2.4920   21.3710 H   0  0  0  0  0  0  0  0  0  0  0  0
    7.0880    0.7330   24.5340 H   0  0  0  0  0  0  0  0  0  0  0  0
    8.4880    0.2250   25.5160 H   0  0  0  0  0  0  0  0  0  0  0  0
    9.5280   -3.3840   25.2050 H   0  0  0  0  0  0  0  0  0  0  0  0
    9.2730   -4.7920   24.1560 H   0  0  0  0  0  0  0  0  0  0  0  0
    8.8500   -2.3490   23.0870 H   0  0  0  0  0  0  0  0  0  0  0  0
  8  2  2  0
  9  3  2  0
 10  4  2  0
 11  7  2  0
 13 12  1  0
 16 15  1  0
 17  1  1  0
 17 12  2  0
 17 14  1  0
 18  8  1  0
 18 13  2  0
 19 14  2  0
 19 18  1  0
 20  7  1  0
 21 15  2  0
 22 16  2  0
 23 11  1  0
 24 20  2  0
 24 21  1  0
 25 22  1  0
 25 23  2  0
 25 24  1  0
 26  9  1  0
 27 10  1  0
 27 23  1  0
 28  8  1  0
 30 26  1  0
 31  9  1  0
 31 28  1  0
 33 27  1  0
 34 28  1  0
 35 32  1  0
 36 29  1  0
 36 33  1  0
 37 10  1  0
 37 19  1  0
 37 34  1  0
 37 36  1  0
 38  5  2  0
 38  6  2  0
 38 29  1  0
 38 35  1  0
 11 39  1  0
 12 40  1  0
 13 41  1  0
 14 42  1  0
 15 43  1  0
 16 44  1  0
 20 45  1  0
 21 46  1  0
 22 47  1  0
 26 48  1  0
 29 49  1  0
 30 50  1  0
 30 51  1  0
 30 52  1  0
 31 53  1  0
 31 54  1  0
 32 55  1  0
 32 56  1  0
 32 57  1  0
 33 58  1  0
 33 59  1  0
 34 60  1  0
 34 61  1  0
 35 62  1  0
 35 63  1  0
 36 64  1  0
M  END
>  <Favorite_cresset>
false

>  <Protein_cresset>
sars_P

>  <MW_cresset>
556.0

>  <#Atoms_cresset>
38

>  <SlogP_cresset>
1.7

>  <TPSA_cresset>
128.8

>  <Flexibility_cresset>
5.4

>  <HBA_cresset>
10

>  <HBD_cresset>
2

>  <Rof5_cresset>
1

>  <Confs_cresset>
0

>  <Poses_cresset>
0

$$$$
predicted (47)
  xed2sdf           3D
 
 56 60  0  0  1  0  0  0  0  0999 V2000
   10.4510    3.1060   23.7540 O   0  0  0  0  0  0  0  0  0  0  0  0
    8.5060    4.7970   24.7650 O   0  0  0  0  0  0  0  0  0  0  0  0
    8.5890    1.1710   21.5170 O   0  0  0  0  0  0  0  0  0  0  0  0
    6.1030   -0.2150   17.9580 N   0  0  0  0  0  0  0  0  0  0  0  0
   10.0590    1.9600   23.8790 C   0  0  0  0  0  0  0  0  0  0  0  0
    7.8400    4.0300   24.0840 C   0  0  0  0  0  0  0  0  0  0  0  0
    8.2980    0.0760   21.9400 C   0  0  0  0  0  0  0  0  0  0  0  0
    6.8180   -0.6020   19.0290 C   0  0  0  0  0  0  0  0  0  0  0  0
   13.2510   -0.0690   23.4520 C   0  0  0  0  0  0  0  0  0  0  0  0
   12.3690    1.0000   23.6360 C   0  0  0  0  0  0  0  0  0  0  0  0
   11.3650   -1.5600   23.0730 C   0  0  0  0  0  0  0  0  0  0  0  0
    2.8900    1.8830   20.9470 C   0  0  0  0  0  0  0  0  0  0  0  0
    3.6230    1.4530   22.0650 C   0  0  0  0  0  0  0  0  0  0  0  0
   12.7480   -1.3480   23.1930 C   0  0  0  0  0  0  0  0  0  0  0  0
   10.9810    0.8020   23.5570 C   0  0  0  0  0  0  0  0  0  0  0  0
   10.4590   -0.4740   23.2240 C   0  0  0  0  0  0  0  0  0  0  0  0
    4.9880    0.5130   18.1780 C   0  0  0  0  0  0  0  0  0  0  0  0
    3.3370    1.5680   19.6540 C   0  0  0  0  0  0  0  0  0  0  0  0
    4.8180    0.7370   21.8910 C   0  0  0  0  0  0  0  0  0  0  0  0
    6.4610   -0.2870   20.3460 C   0  0  0  0  0  0  0  0  0  0  0  0
    4.5330    0.8560   19.4680 C   0  0  0  0  0  0  0  0  0  0  0  0
    5.2820    0.4470   20.5880 C   0  0  0  0  0  0  0  0  0  0  0  0
    7.1550    4.4500   22.9550 N   0  0  0  0  0  0  0  0  0  0  0  0
    7.3070   -0.6940   21.3930 N   0  0  0  0  0  0  0  0  0  0  0  0
    8.7590    1.6090   24.2970 N   0  0  0  0  0  0  0  0  0  0  0  0
    7.0790    5.8520   22.5130 C   0  0  0  0  0  0  0  0  0  0  0  0
    7.6030    2.5550   24.4910 C   0  0  0  0  0  0  0  0  0  0  0  0
    8.0050   -2.8760   24.2780 C   0  0  0  0  0  0  0  0  0  0  0  0
    7.1350   -1.9630   22.0620 C   0  0  0  0  0  0  0  0  0  0  0  0
    8.4330    0.1600   24.4260 C   0  0  0  0  0  0  0  0  0  0  0  0
    8.3550   -2.0850   22.9930 C   0  0  0  0  0  0  0  0  0  0  0  0
    8.9180   -0.6160   23.1680 C   0  0  0  0  0  0  0  0  0  0  0  0
   13.6040   -2.3870   23.0770 F   0  0  0  0  0  0  0  0  0  0  0  0
    7.7170   -1.1830   18.8300 H   0  0  0  0  0  0  0  0  0  0  0  0
   14.3200    0.1000   23.5130 H   0  0  0  0  0  0  0  0  0  0  0  0
   12.7580    1.9840   23.8720 H   0  0  0  0  0  0  0  0  0  0  0  0
   11.0410   -2.5730   22.8620 H   0  0  0  0  0  0  0  0  0  0  0  0
    1.9600    2.4260   21.0820 H   0  0  0  0  0  0  0  0  0  0  0  0
    3.2510    1.6600   23.0650 H   0  0  0  0  0  0  0  0  0  0  0  0
    4.4590    0.8450   17.2910 H   0  0  0  0  0  0  0  0  0  0  0  0
    2.7450    1.8610   18.7970 H   0  0  0  0  0  0  0  0  0  0  0  0
    5.3530    0.3790   22.7690 H   0  0  0  0  0  0  0  0  0  0  0  0
    6.6430    3.7530   22.4280 H   0  0  0  0  0  0  0  0  0  0  0  0
    8.0740    6.2060   22.2190 H   0  0  0  0  0  0  0  0  0  0  0  0
    6.4030    5.9300   21.6540 H   0  0  0  0  0  0  0  0  0  0  0  0
    6.6930    6.4850   23.3230 H   0  0  0  0  0  0  0  0  0  0  0  0
    6.7240    2.1790   23.9490 H   0  0  0  0  0  0  0  0  0  0  0  0
    7.3410    2.5840   25.5530 H   0  0  0  0  0  0  0  0  0  0  0  0
    7.0310   -2.5580   24.6710 H   0  0  0  0  0  0  0  0  0  0  0  0
    8.7570   -2.7460   25.0670 H   0  0  0  0  0  0  0  0  0  0  0  0
    7.9360   -3.9470   24.0450 H   0  0  0  0  0  0  0  0  0  0  0  0
    6.2030   -1.9210   22.6380 H   0  0  0  0  0  0  0  0  0  0  0  0
    7.1010   -2.7890   21.3350 H   0  0  0  0  0  0  0  0  0  0  0  0
    7.3600    0.0230   24.5930 H   0  0  0  0  0  0  0  0  0  0  0  0
    8.9780   -0.2340   25.2950 H   0  0  0  0  0  0  0  0  0  0  0  0
    9.0650   -2.6620   22.3920 H   0  0  0  0  0  0  0  0  0  0  0  0
  5  1  2  0
  6  2  2  0
  7  3  2  0
  8  4  2  0
 10  9  1  0
 13 12  1  0
 14  9  2  0
 14 11  1  0
 15  5  1  0
 15 10  2  0
 16 11  2  0
 16 15  1  0
 17  4  1  0
 18 12  2  0
 19 13  2  0
 20  8  1  0
 21 17  2  0
 21 18  1  0
 22 19  1  0
 22 20  2  0
 22 21  1  0
 23  6  1  0
 24  7  1  0
 24 20  1  0
 25  5  1  0
 26 23  1  0
 27  6  1  0
 27 25  1  0
 29 24  1  0
 30 25  1  0
 31 28  1  0
 31 29  1  0
 32  7  1  0
 32 16  1  0
 32 30  1  0
 32 31  1  0
 33 14  1  0
  8 34  1  0
  9 35  1  0
 10 36  1  0
 11 37  1  0
 12 38  1  0
 13 39  1  0
 17 40  1  0
 18 41  1  0
 19 42  1  0
 23 43  1  0
 26 44  1  0
 26 45  1  0
 26 46  1  0
 27 47  1  0
 27 48  1  0
 28 49  1  0
 28 50  1  0
 28 51  1  0
 29 52  1  0
 29 53  1  0
 30 54  1  0
 30 55  1  0
 31 56  1  0
M  END
>  <Favorite_cresset>
false

>  <Protein_cresset>
sars_P

>  <MW_cresset>
446.5

>  <#Atoms_cresset>
33

>  <SlogP_cresset>
2.8

>  <TPSA_cresset>
82.6

>  <Flexibility_cresset>
2.9

>  <HBA_cresset>
7

>  <HBD_cresset>
1

>  <Rof5_cresset>
0

>  <Confs_cresset>
0

>  <Poses_cresset>
0

$$$$
predicted (48)
  xed2sdf           3D
 
 41 43  0  0  1  0  0  0  0  0999 V2000
    7.5540    1.3300   21.6250 O   0  0  0  0  0  0  0  0  0  0  0  0
    6.1620    0.0680   17.5680 N   0  0  0  0  0  0  0  0  0  0  0  0
   11.5560    0.0920   24.2010 O   0  0  0  0  0  0  0  0  0  0  0  0
    7.9110    0.1900   21.8490 C   0  0  0  0  0  0  0  0  0  0  0  0
    6.8440   -0.4680   18.5960 C   0  0  0  0  0  0  0  0  0  0  0  0
    2.7820    1.6690   20.6340 C   0  0  0  0  0  0  0  0  0  0  0  0
    3.4740    1.1070   21.7160 C   0  0  0  0  0  0  0  0  0  0  0  0
    5.0000    0.6900   17.8300 C   0  0  0  0  0  0  0  0  0  0  0  0
    3.2690    1.4810   19.3380 C   0  0  0  0  0  0  0  0  0  0  0  0
    4.6300    0.3330   21.5010 C   0  0  0  0  0  0  0  0  0  0  0  0
    6.3920   -0.4510   19.9240 C   0  0  0  0  0  0  0  0  0  0  0  0
    4.4560    0.7680   19.1190 C   0  0  0  0  0  0  0  0  0  0  0  0
    5.1510    0.1800   20.1960 C   0  0  0  0  0  0  0  0  0  0  0  0
    8.8560   -0.0910   22.8520 N   0  0  0  0  0  0  0  0  0  0  0  0
    7.3410   -0.9790   21.0090 C   0  0  0  0  0  0  0  0  0  0  0  0
   10.8420    1.2660   23.7330 C   0  0  0  0  0  0  0  0  0  0  0  0
    9.3190    1.0260   23.7370 C   0  0  0  0  0  0  0  0  0  0  0  0
    9.1190   -1.4520   23.4160 C   0  0  0  0  0  0  0  0  0  0  0  0
   13.1320   -1.4870   23.2000 C   0  0  0  0  0  0  0  0  0  0  0  0
   10.5760   -1.9540   23.2260 C   0  0  0  0  0  0  0  0  0  0  0  0
   11.7040   -0.8880   23.1680 C   0  0  0  0  0  0  0  0  0  0  0  0
    7.8320   -0.8610   18.3610 H   0  0  0  0  0  0  0  0  0  0  0  0
    1.8900    2.2700   20.7940 H   0  0  0  0  0  0  0  0  0  0  0  0
    3.1280    1.2970   22.7280 H   0  0  0  0  0  0  0  0  0  0  0  0
    4.5580    1.2390   17.0020 H   0  0  0  0  0  0  0  0  0  0  0  0
    2.7450    1.9250   18.5060 H   0  0  0  0  0  0  0  0  0  0  0  0
    5.1400   -0.0950   22.3570 H   0  0  0  0  0  0  0  0  0  0  0  0
    8.1670   -1.5410   20.5540 H   0  0  0  0  0  0  0  0  0  0  0  0
    6.8300   -1.6980   21.6550 H   0  0  0  0  0  0  0  0  0  0  0  0
   11.0940    2.1200   24.3580 H   0  0  0  0  0  0  0  0  0  0  0  0
   11.1460    1.5690   22.7280 H   0  0  0  0  0  0  0  0  0  0  0  0
    8.8750    1.9720   23.3950 H   0  0  0  0  0  0  0  0  0  0  0  0
    8.9920    0.8300   24.7700 H   0  0  0  0  0  0  0  0  0  0  0  0
    8.4560   -2.2090   22.9700 H   0  0  0  0  0  0  0  0  0  0  0  0
    8.8840   -1.4460   24.4910 H   0  0  0  0  0  0  0  0  0  0  0  0
   13.8640   -0.6890   23.0460 H   0  0  0  0  0  0  0  0  0  0  0  0
   13.3550   -1.9740   24.1550 H   0  0  0  0  0  0  0  0  0  0  0  0
   13.2900   -2.2110   22.3890 H   0  0  0  0  0  0  0  0  0  0  0  0
   10.5830   -2.4920   22.2710 H   0  0  0  0  0  0  0  0  0  0  0  0
   10.8050   -2.6700   24.0270 H   0  0  0  0  0  0  0  0  0  0  0  0
   11.6200   -0.3640   22.2280 H   0  0  0  0  0  0  0  0  0  0  0  0
  4  1  2  0
  5  2  2  0
  7  6  1  0
  8  2  1  0
  9  6  2  0
 10  7  2  0
 11  5  1  0
 12  8  2  0
 12  9  1  0
 13 10  1  0
 13 11  2  0
 13 12  1  0
 14  4  1  0
 15  4  1  0
 15 11  1  0
 16  3  1  0
 17 14  1  0
 17 16  1  0
 18 14  1  0
 20 18  1  0
 21  3  1  0
 21 19  1  0
 21 20  1  0
  5 22  1  0
  6 23  1  0
  7 24  1  0
  8 25  1  0
  9 26  1  0
 10 27  1  0
 15 28  1  0
 15 29  1  0
 16 30  1  0
 16 31  1  0
 17 32  1  0
 17 33  1  0
 18 34  1  0
 18 35  1  0
 19 36  1  0
 19 37  1  0
 19 38  1  0
 20 39  1  0
 20 40  1  0
 21 41  1  0
M  END
>  <Favorite_cresset>
false

>  <Protein_cresset>
sars_P

>  <MW_cresset>
284.4

>  <#Atoms_cresset>
21

>  <SlogP_cresset>
2.4

>  <TPSA_cresset>
42.4

>  <Flexibility_cresset>
4.3

>  <HBA_cresset>
4

>  <HBD_cresset>
0

>  <Rof5_cresset>
0

>  <Confs_cresset>
0

>  <Poses_cresset>
0

$$$$
predicted (49)
  xed2sdf           3D
 
 42 45  0  0  1  0  0  0  0  0999 V2000
  -13.8900   -2.5410  -21.9860 Cl  0  0  0  0  0  0  0  0  0  0  0  0
   -8.5760    0.2110  -25.2160 O   0  0  0  0  0  0  0  0  0  0  0  0
   -8.6620   -1.0640  -21.2370 O   0  0  0  0  0  0  0  0  0  0  0  0
   -6.2450   -0.4790  -18.0620 N   0  0  0  0  0  0  0  0  0  0  0  0
   -8.6840   -0.8690  -24.6550 C   0  0  0  0  0  0  0  0  0  0  0  0
   -8.0620   -2.0550  -21.6270 C   0  0  0  0  0  0  0  0  0  0  0  0
   -6.7190   -1.3280  -18.9910 C   0  0  0  0  0  0  0  0  0  0  0  0
  -12.3970   -0.9880  -23.6470 C   0  0  0  0  0  0  0  0  0  0  0  0
  -11.1900   -0.5990  -24.2500 C   0  0  0  0  0  0  0  0  0  0  0  0
  -11.2080   -2.7520  -22.4920 C   0  0  0  0  0  0  0  0  0  0  0  0
   -2.8170    0.9930  -21.1600 C   0  0  0  0  0  0  0  0  0  0  0  0
   -3.3530    0.1760  -22.1630 C   0  0  0  0  0  0  0  0  0  0  0  0
  -12.4030   -2.0750  -22.7690 C   0  0  0  0  0  0  0  0  0  0  0  0
   -9.9920   -1.3010  -24.0160 C   0  0  0  0  0  0  0  0  0  0  0  0
  -10.0070   -2.3850  -23.1220 C   0  0  0  0  0  0  0  0  0  0  0  0
   -5.1480    0.2460  -18.3560 C   0  0  0  0  0  0  0  0  0  0  0  0
   -3.3730    0.9700  -19.8720 C   0  0  0  0  0  0  0  0  0  0  0  0
   -4.3990   -0.7150  -21.8620 C   0  0  0  0  0  0  0  0  0  0  0  0
   -6.1190   -1.4980  -20.2510 C   0  0  0  0  0  0  0  0  0  0  0  0
   -4.4910    0.1650  -19.5970 C   0  0  0  0  0  0  0  0  0  0  0  0
   -4.9910   -0.7100  -20.5790 C   0  0  0  0  0  0  0  0  0  0  0  0
   -6.7710   -2.3340  -21.1880 N   0  0  0  0  0  0  0  0  0  0  0  0
   -7.6060   -1.7510  -24.5580 N   0  0  0  0  0  0  0  0  0  0  0  0
   -6.2740   -1.4170  -25.0840 C   0  0  0  0  0  0  0  0  0  0  0  0
   -7.7230   -3.0640  -23.9020 C   0  0  0  0  0  0  0  0  0  0  0  0
   -8.6710   -2.9850  -22.6960 C   0  0  0  0  0  0  0  0  0  0  0  0
   -7.6630   -1.8320  -18.7660 H   0  0  0  0  0  0  0  0  0  0  0  0
  -13.3190   -0.4480  -23.8490 H   0  0  0  0  0  0  0  0  0  0  0  0
  -11.1650    0.2760  -24.8790 H   0  0  0  0  0  0  0  0  0  0  0  0
  -11.2030   -3.5330  -21.7510 H   0  0  0  0  0  0  0  0  0  0  0  0
   -1.9650    1.6310  -21.3840 H   0  0  0  0  0  0  0  0  0  0  0  0
   -2.9300    0.2050  -23.1660 H   0  0  0  0  0  0  0  0  0  0  0  0
   -4.8550    0.9860  -17.6160 H   0  0  0  0  0  0  0  0  0  0  0  0
   -2.9440    1.5890  -19.0950 H   0  0  0  0  0  0  0  0  0  0  0  0
   -4.7320   -1.4070  -22.6270 H   0  0  0  0  0  0  0  0  0  0  0  0
   -6.3010   -3.1940  -21.4560 H   0  0  0  0  0  0  0  0  0  0  0  0
   -5.5090   -1.9830  -24.5480 H   0  0  0  0  0  0  0  0  0  0  0  0
   -6.2060   -1.6890  -26.1420 H   0  0  0  0  0  0  0  0  0  0  0  0
   -6.0760   -0.3460  -24.9530 H   0  0  0  0  0  0  0  0  0  0  0  0
   -6.7370   -3.4030  -23.5660 H   0  0  0  0  0  0  0  0  0  0  0  0
   -8.0900   -3.8020  -24.6240 H   0  0  0  0  0  0  0  0  0  0  0  0
   -8.8040   -3.9910  -22.2830 H   0  0  0  0  0  0  0  0  0  0  0  0
  5  2  2  0
  6  3  2  0
  7  4  2  0
  9  8  1  0
 12 11  1  0
 13  1  1  0
 13  8  2  0
 13 10  1  0
 14  5  1  0
 14  9  2  0
 15 10  2  0
 15 14  1  0
 16  4  1  0
 17 11  2  0
 18 12  2  0
 19  7  1  0
 20 16  2  0
 20 17  1  0
 21 18  1  0
 21 19  2  0
 21 20  1  0
 22  6  1  0
 22 19  1  0
 23  5  1  0
 24 23  1  0
 25 23  1  0
 26  6  1  0
 26 15  1  0
 26 25  1  0
  7 27  1  0
  8 28  1  0
  9 29  1  0
 10 30  1  0
 11 31  1  0
 12 32  1  0
 16 33  1  0
 17 34  1  0
 18 35  1  0
 22 36  1  0
 24 37  1  0
 24 38  1  0
 24 39  1  0
 25 40  1  0
 25 41  1  0
 26 42  1  0
M  END
>  <Favorite_cresset>
false

>  <Protein_cresset>
sars_P

>  <MW_cresset>
365.8

>  <#Atoms_cresset>
26

>  <SlogP_cresset>
3.7

>  <TPSA_cresset>
62.3

>  <Flexibility_cresset>
1.6

>  <HBA_cresset>
5

>  <HBD_cresset>
1

>  <Rof5_cresset>
0

>  <Confs_cresset>
0

>  <Poses_cresset>
0

$$$$
predicted (50)
  xed2sdf           3D
 
 38 41  0  0  0  0  0  0  0  0999 V2000
    7.7030    0.8660   21.7960 O   0  0  0  0  0  0  0  0  0  0  0  0
    5.9690   -0.2320   17.8060 N   0  0  0  0  0  0  0  0  0  0  0  0
   13.2150    0.0370   23.6780 S   0  0  0  0  0  0  0  0  0  0  0  0
    7.8800   -0.3230   21.9910 C   0  0  0  0  0  0  0  0  0  0  0  0
    6.6290   -0.8160   18.8210 C   0  0  0  0  0  0  0  0  0  0  0  0
   13.4870   -1.6360   23.1920 C   0  0  0  0  0  0  0  0  0  0  0  0
   11.4960   -0.1690   23.4490 C   0  0  0  0  0  0  0  0  0  0  0  0
   12.3190   -2.2720   22.8530 C   0  0  0  0  0  0  0  0  0  0  0  0
    2.7940    1.6140   20.9480 C   0  0  0  0  0  0  0  0  0  0  0  0
    3.4990    1.0450   22.0180 C   0  0  0  0  0  0  0  0  0  0  0  0
   11.1860   -1.4230   23.0030 C   0  0  0  0  0  0  0  0  0  0  0  0
    4.8530    0.4620   18.0870 C   0  0  0  0  0  0  0  0  0  0  0  0
    3.2130    1.3780   19.6320 C   0  0  0  0  0  0  0  0  0  0  0  0
    4.6060    0.2180   21.7840 C   0  0  0  0  0  0  0  0  0  0  0  0
    6.2150   -0.7360   20.1590 C   0  0  0  0  0  0  0  0  0  0  0  0
    4.3610    0.6150   19.3940 C   0  0  0  0  0  0  0  0  0  0  0  0
    5.0580    0.0150   20.4610 C   0  0  0  0  0  0  0  0  0  0  0  0
    8.7620   -0.7900   22.9600 N   0  0  0  0  0  0  0  0  0  0  0  0
    7.0890   -1.3730   21.2260 C   0  0  0  0  0  0  0  0  0  0  0  0
    9.7750   -1.8350   22.6360 C   0  0  0  0  0  0  0  0  0  0  0  0
   10.4280    0.8640   23.6300 C   0  0  0  0  0  0  0  0  0  0  0  0
    9.1320    0.1320   24.0490 C   0  0  0  0  0  0  0  0  0  0  0  0
    7.5480   -1.3400   18.5600 H   0  0  0  0  0  0  0  0  0  0  0  0
   14.4910   -2.0260   23.2020 H   0  0  0  0  0  0  0  0  0  0  0  0
   12.2850   -3.3000   22.5090 H   0  0  0  0  0  0  0  0  0  0  0  0
    1.9240    2.2330   21.1380 H   0  0  0  0  0  0  0  0  0  0  0  0
    3.1710    1.2370   23.0340 H   0  0  0  0  0  0  0  0  0  0  0  0
    4.3890    0.9780   17.2560 H   0  0  0  0  0  0  0  0  0  0  0  0
    2.6390    1.7760   18.8040 H   0  0  0  0  0  0  0  0  0  0  0  0
    5.1040   -0.2450   22.6330 H   0  0  0  0  0  0  0  0  0  0  0  0
    7.8190   -2.0360   20.7650 H   0  0  0  0  0  0  0  0  0  0  0  0
    6.4920   -1.9920   21.9010 H   0  0  0  0  0  0  0  0  0  0  0  0
    9.7800   -2.0190   21.5590 H   0  0  0  0  0  0  0  0  0  0  0  0
    9.4820   -2.7740   23.1130 H   0  0  0  0  0  0  0  0  0  0  0  0
   10.7250    1.6620   24.3120 H   0  0  0  0  0  0  0  0  0  0  0  0
   10.2450    1.3570   22.6740 H   0  0  0  0  0  0  0  0  0  0  0  0
    8.3210    0.8520   24.1950 H   0  0  0  0  0  0  0  0  0  0  0  0
    9.2640   -0.4310   24.9890 H   0  0  0  0  0  0  0  0  0  0  0  0
  4  1  2  0
  5  2  2  0
  6  3  1  0
  7  3  1  0
  8  6  2  0
 10  9  1  0
 11  7  2  0
 11  8  1  0
 12  2  1  0
 13  9  2  0
 14 10  2  0
 15  5  1  0
 16 12  2  0
 16 13  1  0
 17 14  1  0
 17 15  2  0
 17 16  1  0
 18  4  1  0
 19  4  1  0
 19 15  1  0
 20 11  1  0
 20 18  1  0
 21  7  1  0
 22 18  1  0
 22 21  1  0
  5 23  1  0
  6 24  1  0
  8 25  1  0
  9 26  1  0
 10 27  1  0
 12 28  1  0
 13 29  1  0
 14 30  1  0
 19 31  1  0
 19 32  1  0
 20 33  1  0
 20 34  1  0
 21 35  1  0
 21 36  1  0
 22 37  1  0
 22 38  1  0
M  END
>  <Favorite_cresset>
false

>  <Protein_cresset>
sars_P

>  <MW_cresset>
308.4

>  <#Atoms_cresset>
22

>  <SlogP_cresset>
3.4

>  <TPSA_cresset>
33.2

>  <Flexibility_cresset>
2.7

>  <HBA_cresset>
3

>  <HBD_cresset>
0

>  <Rof5_cresset>
0

>  <Confs_cresset>
0

>  <Poses_cresset>
0

$$$$
predicted (51)
  xed2sdf           3D
 
 67 73  0  0  1  0  0  0  0  0999 V2000
   13.9190   -2.0890   22.8580 Cl  0  0  0  0  0  0  0  0  0  0  0  0
   10.1800    3.5040   23.9220 O   0  0  0  0  0  0  0  0  0  0  0  0
    8.3890    1.5260   21.5410 O   0  0  0  0  0  0  0  0  0  0  0  0
    4.9070    4.0180   23.7360 N   0  0  0  0  0  0  0  0  0  0  0  0
    5.4920    3.1250   24.6100 N   0  0  0  0  0  0  0  0  0  0  0  0
    4.2680   -5.4870   25.6270 N   0  0  0  0  0  0  0  0  0  0  0  0
    5.8380   -3.6720   25.3130 N   0  0  0  0  0  0  0  0  0  0  0  0
    6.1000   -0.2130   17.8460 N   0  0  0  0  0  0  0  0  0  0  0  0
    7.1250    4.4140   23.7390 O   0  0  0  0  0  0  0  0  0  0  0  0
    9.9080    2.3120   23.9610 C   0  0  0  0  0  0  0  0  0  0  0  0
    8.2130    0.3850   21.9060 C   0  0  0  0  0  0  0  0  0  0  0  0
    4.7390   -4.2420   25.8550 C   0  0  0  0  0  0  0  0  0  0  0  0
    5.9040    4.7250   23.2350 C   0  0  0  0  0  0  0  0  0  0  0  0
    6.7810    3.4060   24.5850 C   0  0  0  0  0  0  0  0  0  0  0  0
    4.9830   -6.2370   24.7630 C   0  0  0  0  0  0  0  0  0  0  0  0
    6.8090   -0.5520   18.9410 C   0  0  0  0  0  0  0  0  0  0  0  0
    6.5670   -4.4440   24.4800 C   0  0  0  0  0  0  0  0  0  0  0  0
    6.1520   -5.7430   24.1620 C   0  0  0  0  0  0  0  0  0  0  0  0
   13.2140    0.5000   23.4270 C   0  0  0  0  0  0  0  0  0  0  0  0
   12.2730    1.5170   23.6360 C   0  0  0  0  0  0  0  0  0  0  0  0
   11.4010   -1.0530   22.9690 C   0  0  0  0  0  0  0  0  0  0  0  0
    2.7520    1.8330   20.6940 C   0  0  0  0  0  0  0  0  0  0  0  0
    3.4980    1.4980   21.8320 C   0  0  0  0  0  0  0  0  0  0  0  0
   12.7710   -0.7870   23.0960 C   0  0  0  0  0  0  0  0  0  0  0  0
   10.8930    1.2590   23.5170 C   0  0  0  0  0  0  0  0  0  0  0  0
   10.4380   -0.0290   23.1460 C   0  0  0  0  0  0  0  0  0  0  0  0
    4.9660    0.4880   18.0190 C   0  0  0  0  0  0  0  0  0  0  0  0
    3.2360    1.4990   19.4240 C   0  0  0  0  0  0  0  0  0  0  0  0
    4.7240    0.8300   21.7000 C   0  0  0  0  0  0  0  0  0  0  0  0
    6.4390   -0.1810   20.2420 C   0  0  0  0  0  0  0  0  0  0  0  0
    4.4610    0.8250   19.2850 C   0  0  0  0  0  0  0  0  0  0  0  0
    5.2130    0.4900   20.4250 C   0  0  0  0  0  0  0  0  0  0  0  0
    7.7610   -3.9300   23.9600 N   0  0  0  0  0  0  0  0  0  0  0  0
    7.3000   -0.4760   21.3310 N   0  0  0  0  0  0  0  0  0  0  0  0
    8.7090    1.8240   24.4950 N   0  0  0  0  0  0  0  0  0  0  0  0
    5.7810    5.8910   22.2800 C   0  0  0  0  0  0  0  0  0  0  0  0
    7.8590    2.6720   25.3590 C   0  0  0  0  0  0  0  0  0  0  0  0
    8.2970   -2.5830   24.2200 C   0  0  0  0  0  0  0  0  0  0  0  0
    7.1730   -1.7020   22.0990 C   0  0  0  0  0  0  0  0  0  0  0  0
    8.3070    0.3970   24.3720 C   0  0  0  0  0  0  0  0  0  0  0  0
    8.4650   -1.7720   22.9120 C   0  0  0  0  0  0  0  0  0  0  0  0
    8.9100   -0.2760   23.1040 C   0  0  0  0  0  0  0  0  0  0  0  0
    4.1820   -3.6410   26.5660 H   0  0  0  0  0  0  0  0  0  0  0  0
    4.6030   -7.2330   24.5440 H   0  0  0  0  0  0  0  0  0  0  0  0
    7.7210   -1.1170   18.7660 H   0  0  0  0  0  0  0  0  0  0  0  0
    6.7370   -6.3630   23.4940 H   0  0  0  0  0  0  0  0  0  0  0  0
   14.2730    0.7040   23.5510 H   0  0  0  0  0  0  0  0  0  0  0  0
   12.6110    2.4950   23.9660 H   0  0  0  0  0  0  0  0  0  0  0  0
   11.1220   -2.0790   22.7670 H   0  0  0  0  0  0  0  0  0  0  0  0
    1.8020    2.3510   20.7960 H   0  0  0  0  0  0  0  0  0  0  0  0
    3.1270    1.7610   22.8180 H   0  0  0  0  0  0  0  0  0  0  0  0
    4.4700    0.8120   17.1130 H   0  0  0  0  0  0  0  0  0  0  0  0
    2.6520    1.7610   18.5540 H   0  0  0  0  0  0  0  0  0  0  0  0
    5.2810    0.5740   22.5930 H   0  0  0  0  0  0  0  0  0  0  0  0
    8.3480   -4.5650   23.4260 H   0  0  0  0  0  0  0  0  0  0  0  0
    4.7450    6.0540   21.9410 H   0  0  0  0  0  0  0  0  0  0  0  0
    6.4260    5.7200   21.4080 H   0  0  0  0  0  0  0  0  0  0  0  0
    6.1290    6.8190   22.7540 H   0  0  0  0  0  0  0  0  0  0  0  0
    7.4120    2.0520   26.1470 H   0  0  0  0  0  0  0  0  0  0  0  0
    8.5010    3.3960   25.8760 H   0  0  0  0  0  0  0  0  0  0  0  0
    9.2690   -2.6790   24.7180 H   0  0  0  0  0  0  0  0  0  0  0  0
    7.6260   -2.0260   24.8870 H   0  0  0  0  0  0  0  0  0  0  0  0
    6.3190   -1.6210   22.7830 H   0  0  0  0  0  0  0  0  0  0  0  0
    7.0690   -2.5790   21.4460 H   0  0  0  0  0  0  0  0  0  0  0  0
    7.2110    0.3220   24.3330 H   0  0  0  0  0  0  0  0  0  0  0  0
    8.6550   -0.1320   25.2680 H   0  0  0  0  0  0  0  0  0  0  0  0
    9.1610   -2.2770   22.2350 H   0  0  0  0  0  0  0  0  0  0  0  0
  5  4  1  0
 10  2  2  0
 11  3  2  0
 12  6  2  0
 12  7  1  0
 13  4  2  0
 13  9  1  0
 14  5  2  0
 14  9  1  0
 15  6  1  0
 16  8  2  0
 17  7  2  0
 18 15  2  0
 18 17  1  0
 20 19  1  0
 23 22  1  0
 24  1  1  0
 24 19  2  0
 24 21  1  0
 25 10  1  0
 25 20  2  0
 26 21  2  0
 26 25  1  0
 27  8  1  0
 28 22  2  0
 29 23  2  0
 30 16  1  0
 31 27  2  0
 31 28  1  0
 32 29  1  0
 32 30  2  0
 32 31  1  0
 33 17  1  0
 34 11  1  0
 34 30  1  0
 35 10  1  0
 36 13  1  0
 37 14  1  0
 37 35  1  0
 38 33  1  0
 39 34  1  0
 40 35  1  0
 41 38  1  0
 41 39  1  0
 42 11  1  0
 42 26  1  0
 42 40  1  0
 42 41  1  0
 12 43  1  0
 15 44  1  0
 16 45  1  0
 18 46  1  0
 19 47  1  0
 20 48  1  0
 21 49  1  0
 22 50  1  0
 23 51  1  0
 27 52  1  0
 28 53  1  0
 29 54  1  0
 33 55  1  0
 36 56  1  0
 36 57  1  0
 36 58  1  0
 37 59  1  0
 37 60  1  0
 38 61  1  0
 38 62  1  0
 39 63  1  0
 39 64  1  0
 40 65  1  0
 40 66  1  0
 41 67  1  0
M  END
>  <Favorite_cresset>
false

>  <Protein_cresset>
sars_P

>  <MW_cresset>
581.0

>  <#Atoms_cresset>
42

>  <SlogP_cresset>
3.5

>  <TPSA_cresset>
130.2

>  <Flexibility_cresset>
5.1

>  <HBA_cresset>
11

>  <HBD_cresset>
1

>  <Rof5_cresset>
2

>  <Confs_cresset>
0

>  <Poses_cresset>
0

$$$$
predicted (52)
  xed2sdf           3D
 
 66 71  0  0  1  0  0  0  0  0999 V2000
   13.9700   -1.7380   23.1360 Cl  0  0  0  0  0  0  0  0  0  0  0  0
    9.8260    3.5310   23.9020 O   0  0  0  0  0  0  0  0  0  0  0  0
    7.5250    4.8690   25.0100 O   0  0  0  0  0  0  0  0  0  0  0  0
    8.4800    1.2080   21.5160 O   0  0  0  0  0  0  0  0  0  0  0  0
    4.9050   -6.3980   25.6740 N   0  0  0  0  0  0  0  0  0  0  0  0
    6.5660   -4.6660   25.8850 N   0  0  0  0  0  0  0  0  0  0  0  0
    6.1030   -0.3160   18.1010 N   0  0  0  0  0  0  0  0  0  0  0  0
    9.5710    2.3430   24.0250 C   0  0  0  0  0  0  0  0  0  0  0  0
    7.1670    4.1370   24.1000 C   0  0  0  0  0  0  0  0  0  0  0  0
    8.1730    0.1690   22.0650 C   0  0  0  0  0  0  0  0  0  0  0  0
    5.5400   -5.4120   26.3430 C   0  0  0  0  0  0  0  0  0  0  0  0
    5.4100   -6.7070   24.4610 C   0  0  0  0  0  0  0  0  0  0  0  0
    6.7790   -0.6940   19.2050 C   0  0  0  0  0  0  0  0  0  0  0  0
    7.0600   -4.9870   24.6710 C   0  0  0  0  0  0  0  0  0  0  0  0
    6.5360   -6.0580   23.9320 C   0  0  0  0  0  0  0  0  0  0  0  0
   13.0220    0.7640   23.6360 C   0  0  0  0  0  0  0  0  0  0  0  0
   12.0010    1.7010   23.8160 C   0  0  0  0  0  0  0  0  0  0  0  0
   11.3560   -0.9670   23.2510 C   0  0  0  0  0  0  0  0  0  0  0  0
    2.7580    1.7760   20.9190 C   0  0  0  0  0  0  0  0  0  0  0  0
    3.4590    1.3920   22.0720 C   0  0  0  0  0  0  0  0  0  0  0  0
   12.6970   -0.5680   23.3670 C   0  0  0  0  0  0  0  0  0  0  0  0
   10.6470    1.3070   23.7640 C   0  0  0  0  0  0  0  0  0  0  0  0
   10.3070   -0.0330   23.4430 C   0  0  0  0  0  0  0  0  0  0  0  0
    4.9650    0.3860   18.2670 C   0  0  0  0  0  0  0  0  0  0  0  0
    3.2590    1.4530   19.6490 C   0  0  0  0  0  0  0  0  0  0  0  0
    4.6530    0.6670   21.9550 C   0  0  0  0  0  0  0  0  0  0  0  0
    6.3530   -0.3880   20.5060 C   0  0  0  0  0  0  0  0  0  0  0  0
    4.4420    0.7100   19.5300 C   0  0  0  0  0  0  0  0  0  0  0  0
    5.1460    0.3150   20.6820 C   0  0  0  0  0  0  0  0  0  0  0  0
    6.8440    4.6160   22.8400 N   0  0  0  0  0  0  0  0  0  0  0  0
    8.0220   -4.1590   24.1050 N   0  0  0  0  0  0  0  0  0  0  0  0
    7.1980   -0.6740   21.5990 N   0  0  0  0  0  0  0  0  0  0  0  0
    8.2950    1.8410   24.3610 N   0  0  0  0  0  0  0  0  0  0  0  0
    7.0370    6.0140   22.4410 C   0  0  0  0  0  0  0  0  0  0  0  0
    7.0140    2.6140   24.2690 C   0  0  0  0  0  0  0  0  0  0  0  0
    8.2410   -2.7390   24.4830 C   0  0  0  0  0  0  0  0  0  0  0  0
    7.1510   -1.9280   22.3280 C   0  0  0  0  0  0  0  0  0  0  0  0
    8.1030    0.3710   24.5200 C   0  0  0  0  0  0  0  0  0  0  0  0
    8.4220   -1.9060   23.2000 C   0  0  0  0  0  0  0  0  0  0  0  0
    8.8010   -0.3830   23.3500 C   0  0  0  0  0  0  0  0  0  0  0  0
    5.1580   -5.1490   27.3260 H   0  0  0  0  0  0  0  0  0  0  0  0
    4.9010   -7.4890   23.9110 H   0  0  0  0  0  0  0  0  0  0  0  0
    7.7130   -1.2310   19.0460 H   0  0  0  0  0  0  0  0  0  0  0  0
    6.9410   -6.3230   22.9550 H   0  0  0  0  0  0  0  0  0  0  0  0
   14.0600    1.0690   23.7150 H   0  0  0  0  0  0  0  0  0  0  0  0
   12.2690    2.7330   24.0260 H   0  0  0  0  0  0  0  0  0  0  0  0
   11.1630   -2.0080   23.0230 H   0  0  0  0  0  0  0  0  0  0  0  0
    1.8410    2.3480   21.0090 H   0  0  0  0  0  0  0  0  0  0  0  0
    3.0880    1.6720   23.0550 H   0  0  0  0  0  0  0  0  0  0  0  0
    4.4760    0.7220   17.3580 H   0  0  0  0  0  0  0  0  0  0  0  0
    2.7440    1.7970   18.7600 H   0  0  0  0  0  0  0  0  0  0  0  0
    5.1920    0.3940   22.8560 H   0  0  0  0  0  0  0  0  0  0  0  0
    6.5400    3.9520   22.1370 H   0  0  0  0  0  0  0  0  0  0  0  0
    8.3480   -4.4310   23.1850 H   0  0  0  0  0  0  0  0  0  0  0  0
    8.1080    6.2550   22.4560 H   0  0  0  0  0  0  0  0  0  0  0  0
    6.6450    6.1670   21.4270 H   0  0  0  0  0  0  0  0  0  0  0  0
    6.5050    6.6720   23.1390 H   0  0  0  0  0  0  0  0  0  0  0  0
    6.4190    2.4380   25.1730 H   0  0  0  0  0  0  0  0  0  0  0  0
    6.4380    2.2460   23.4110 H   0  0  0  0  0  0  0  0  0  0  0  0
    7.3770   -2.3420   25.0310 H   0  0  0  0  0  0  0  0  0  0  0  0
    9.1310   -2.6450   25.1170 H   0  0  0  0  0  0  0  0  0  0  0  0
    6.2430   -1.9680   22.9480 H   0  0  0  0  0  0  0  0  0  0  0  0
    7.1790   -2.7740   21.6300 H   0  0  0  0  0  0  0  0  0  0  0  0
    7.0300    0.1350   24.5400 H   0  0  0  0  0  0  0  0  0  0  0  0
    8.5410    0.0600   25.4780 H   0  0  0  0  0  0  0  0  0  0  0  0
    9.1830   -2.3850   22.5750 H   0  0  0  0  0  0  0  0  0  0  0  0
  8  2  2  0
  9  3  2  0
 10  4  2  0
 11  5  2  0
 11  6  1  0
 12  5  1  0
 13  7  2  0
 14  6  2  0
 15 12  2  0
 15 14  1  0
 17 16  1  0
 20 19  1  0
 21  1  1  0
 21 16  2  0
 21 18  1  0
 22  8  1  0
 22 17  2  0
 23 18  2  0
 23 22  1  0
 24  7  1  0
 25 19  2  0
 26 20  2  0
 27 13  1  0
 28 24  2  0
 28 25  1  0
 29 26  1  0
 29 27  2  0
 29 28  1  0
 30  9  1  0
 31 14  1  0
 32 10  1  0
 32 27  1  0
 33  8  1  0
 34 30  1  0
 35  9  1  0
 35 33  1  0
 36 31  1  0
 37 32  1  0
 38 33  1  0
 39 36  1  0
 39 37  1  0
 40 10  1  0
 40 23  1  0
 40 38  1  0
 40 39  1  0
 11 41  1  0
 12 42  1  0
 13 43  1  0
 15 44  1  0
 16 45  1  0
 17 46  1  0
 18 47  1  0
 19 48  1  0
 20 49  1  0
 24 50  1  0
 25 51  1  0
 26 52  1  0
 30 53  1  0
 31 54  1  0
 34 55  1  0
 34 56  1  0
 34 57  1  0
 35 58  1  0
 35 59  1  0
 36 60  1  0
 36 61  1  0
 37 62  1  0
 37 63  1  0
 38 64  1  0
 38 65  1  0
 39 66  1  0
M  END
>  <Favorite_cresset>
false

>  <Protein_cresset>
sars_P

>  <MW_cresset>
556.0

>  <#Atoms_cresset>
40

>  <SlogP_cresset>
2.9

>  <TPSA_cresset>
120.4

>  <Flexibility_cresset>
5.1

>  <HBA_cresset>
10

>  <HBD_cresset>
2

>  <Rof5_cresset>
1

>  <Confs_cresset>
0

>  <Poses_cresset>
0

$$$$
predicted (53)
  xed2sdf           3D
 
 74 82  0  0  1  0  0  0  0  0999 V2000
   13.5390   -2.2950   22.9230 Cl  0  0  0  0  0  0  0  0  0  0  0  0
   10.2170    3.4920   23.8310 O   0  0  0  0  0  0  0  0  0  0  0  0
    8.5010    1.3030   21.4980 O   0  0  0  0  0  0  0  0  0  0  0  0
    8.9830   -5.1150   25.1100 N   0  0  0  0  0  0  0  0  0  0  0  0
    7.1740   -4.5470   26.6040 N   0  0  0  0  0  0  0  0  0  0  0  0
    6.1040   -0.2240   17.9210 N   0  0  0  0  0  0  0  0  0  0  0  0
    5.4180    8.2040   23.1310 O   0  0  0  0  0  0  0  0  0  0  0  0
    9.7850    2.3570   23.9650 C   0  0  0  0  0  0  0  0  0  0  0  0
    8.1160    0.2740   22.0020 C   0  0  0  0  0  0  0  0  0  0  0  0
    7.7990   -4.5430   25.4070 C   0  0  0  0  0  0  0  0  0  0  0  0
    9.6230   -5.7280   26.1290 C   0  0  0  0  0  0  0  0  0  0  0  0
    7.8140   -5.1760   27.6080 C   0  0  0  0  0  0  0  0  0  0  0  0
    6.8020   -0.5620   19.0220 C   0  0  0  0  0  0  0  0  0  0  0  0
    9.0750   -5.7690   27.4240 C   0  0  0  0  0  0  0  0  0  0  0  0
   12.9470    0.2840   23.5460 C   0  0  0  0  0  0  0  0  0  0  0  0
   12.0710    1.3450   23.7860 C   0  0  0  0  0  0  0  0  0  0  0  0
   11.0490   -1.1900   23.1960 C   0  0  0  0  0  0  0  0  0  0  0  0
    2.7370    1.8350   20.7470 C   0  0  0  0  0  0  0  0  0  0  0  0
    3.4660    1.4900   21.8940 C   0  0  0  0  0  0  0  0  0  0  0  0
   12.4360   -0.9770   23.2460 C   0  0  0  0  0  0  0  0  0  0  0  0
   10.6740    1.1570   23.7210 C   0  0  0  0  0  0  0  0  0  0  0  0
   10.1350   -0.1260   23.4370 C   0  0  0  0  0  0  0  0  0  0  0  0
    4.9610    0.4700   18.0860 C   0  0  0  0  0  0  0  0  0  0  0  0
    3.2400    1.5140   19.4780 C   0  0  0  0  0  0  0  0  0  0  0  0
    4.6950    0.8280   21.7720 C   0  0  0  0  0  0  0  0  0  0  0  0
    6.3940   -0.2130   20.3160 C   0  0  0  0  0  0  0  0  0  0  0  0
    4.4550    0.8290   19.3490 C   0  0  0  0  0  0  0  0  0  0  0  0
    5.1870    0.4850   20.4960 C   0  0  0  0  0  0  0  0  0  0  0  0
    7.2570   -3.7420   24.4210 N   0  0  0  0  0  0  0  0  0  0  0  0
    7.1980   -0.5580   21.4140 N   0  0  0  0  0  0  0  0  0  0  0  0
    8.4660    2.0920   24.3370 N   0  0  0  0  0  0  0  0  0  0  0  0
    5.1240    7.4740   21.9220 C   0  0  0  0  0  0  0  0  0  0  0  0
    5.0640    6.9460   23.7370 C   0  0  0  0  0  0  0  0  0  0  0  0
    7.5170    3.2080   24.5570 C   0  0  0  0  0  0  0  0  0  0  0  0
    5.7090    6.1340   22.5030 C   0  0  0  0  0  0  0  0  0  0  0  0
    7.3390   -2.2830   24.5940 C   0  0  0  0  0  0  0  0  0  0  0  0
    6.9760   -1.7770   22.1460 C   0  0  0  0  0  0  0  0  0  0  0  0
    7.9620    0.6910   24.4510 C   0  0  0  0  0  0  0  0  0  0  0  0
    6.5100    3.3470   23.4100 C   0  0  0  0  0  0  0  0  0  0  0  0
    6.9670    5.5070   22.0590 C   0  0  0  0  0  0  0  0  0  0  0  0
    5.6560    4.7550   21.7920 C   0  0  0  0  0  0  0  0  0  0  0  0
    7.9710   -1.7120   23.3180 C   0  0  0  0  0  0  0  0  0  0  0  0
    8.5790   -0.2490   23.3570 C   0  0  0  0  0  0  0  0  0  0  0  0
    6.1760    4.7490   23.1080 N   0  0  0  0  0  0  0  0  0  0  0  0
   10.5920   -6.1750   25.9110 H   0  0  0  0  0  0  0  0  0  0  0  0
    7.3160   -5.1870   28.5790 H   0  0  0  0  0  0  0  0  0  0  0  0
    7.7190   -1.1280   18.8640 H   0  0  0  0  0  0  0  0  0  0  0  0
    9.6040   -6.2370   28.2480 H   0  0  0  0  0  0  0  0  0  0  0  0
   14.0200    0.4410   23.5740 H   0  0  0  0  0  0  0  0  0  0  0  0
   12.4900    2.3210   24.0210 H   0  0  0  0  0  0  0  0  0  0  0  0
   10.7240   -2.1890   22.9390 H   0  0  0  0  0  0  0  0  0  0  0  0
    1.7860    2.3520   20.8410 H   0  0  0  0  0  0  0  0  0  0  0  0
    3.0790    1.7320   22.8790 H   0  0  0  0  0  0  0  0  0  0  0  0
    4.4400    0.7500   17.1780 H   0  0  0  0  0  0  0  0  0  0  0  0
    2.6770    1.7850   18.5980 H   0  0  0  0  0  0  0  0  0  0  0  0
    5.2480    0.5740   22.6710 H   0  0  0  0  0  0  0  0  0  0  0  0
    7.5240   -4.0230   23.4880 H   0  0  0  0  0  0  0  0  0  0  0  0
    4.0510    7.3980   21.6960 H   0  0  0  0  0  0  0  0  0  0  0  0
    5.6880    7.8210   21.0520 H   0  0  0  0  0  0  0  0  0  0  0  0
    3.9800    6.7940   23.8130 H   0  0  0  0  0  0  0  0  0  0  0  0
    5.5710    6.7700   24.6900 H   0  0  0  0  0  0  0  0  0  0  0  0
    8.0800    4.1460   24.6470 H   0  0  0  0  0  0  0  0  0  0  0  0
    6.9800    3.0480   25.4970 H   0  0  0  0  0  0  0  0  0  0  0  0
    6.3440   -1.8540   24.7720 H   0  0  0  0  0  0  0  0  0  0  0  0
    7.9860   -2.0520   25.4460 H   0  0  0  0  0  0  0  0  0  0  0  0
    5.9320   -1.8210   22.4840 H   0  0  0  0  0  0  0  0  0  0  0  0
    7.1880   -2.6470   21.5110 H   0  0  0  0  0  0  0  0  0  0  0  0
    6.8670    0.6810   24.3870 H   0  0  0  0  0  0  0  0  0  0  0  0
    8.2400    0.3010   25.4370 H   0  0  0  0  0  0  0  0  0  0  0  0
    6.9150    2.8700   22.5070 H   0  0  0  0  0  0  0  0  0  0  0  0
    5.5930    2.8070   23.6750 H   0  0  0  0  0  0  0  0  0  0  0  0
    7.9760    5.3610   22.4480 H   0  0  0  0  0  0  0  0  0  0  0  0
    4.6180    4.9010   21.5050 H   0  0  0  0  0  0  0  0  0  0  0  0
    8.7580   -2.4050   23.0350 H   0  0  0  0  0  0  0  0  0  0  0  0
  8  2  2  0
  9  3  2  0
 10  4  2  0
 10  5  1  0
 11  4  1  0
 12  5  2  0
 13  6  2  0
 14 11  2  0
 14 12  1  0
 16 15  1  0
 19 18  1  0
 20  1  1  0
 20 15  2  0
 20 17  1  0
 21  8  1  0
 21 16  2  0
 22 17  2  0
 22 21  1  0
 23  6  1  0
 24 18  2  0
 25 19  2  0
 26 13  1  0
 27 23  2  0
 27 24  1  0
 28 25  1  0
 28 26  2  0
 28 27  1  0
 29 10  1  0
 30  9  1  0
 30 26  1  0
 31  8  1  0
 32  7  1  0
 33  7  1  0
 34 31  1  0
 35 32  1  0
 35 33  1  0
 36 29  1  0
 37 30  1  0
 38 31  1  0
 39 34  1  0
 40 35  1  0
 41 35  1  0
 41 40  1  0
 42 36  1  0
 42 37  1  0
 43  9  1  0
 43 22  1  0
 43 38  1  0
 43 42  1  0
 44 39  1  0
 44 40  1  0
 44 41  1  0
 11 45  1  0
 12 46  1  0
 13 47  1  0
 14 48  1  0
 15 49  1  0
 16 50  1  0
 17 51  1  0
 18 52  1  0
 19 53  1  0
 23 54  1  0
 24 55  1  0
 25 56  1  0
 29 57  1  0
 32 58  1  0
 32 59  1  0
 33 60  1  0
 33 61  1  0
 34 62  1  0
 34 63  1  0
 36 64  1  0
 36 65  1  0
 37 66  1  0
 37 67  1  0
 38 68  1  0
 38 69  1  0
 39 70  1  0
 39 71  1  0
 40 72  1  0
 41 73  1  0
 42 74  1  0
M  END
>  <Favorite_cresset>
false

>  <Protein_cresset>
sars_P

>  <MW_cresset>
608.1

>  <#Atoms_cresset>
44

>  <SlogP_cresset>
3.3

>  <TPSA_cresset>
103.6

>  <Flexibility_cresset>
6.1

>  <HBA_cresset>
10

>  <HBD_cresset>
1

>  <Rof5_cresset>
1

>  <Confs_cresset>
0

>  <Poses_cresset>
0

$$$$
predicted (54)
  xed2sdf           3D
 
 66 71  0  0  1  0  0  0  0  0999 V2000
   13.6130   -2.2490   22.9780 Cl  0  0  0  0  0  0  0  0  0  0  0  0
    9.9980    3.4280   23.8890 O   0  0  0  0  0  0  0  0  0  0  0  0
    5.3500    2.8150   24.0350 O   0  0  0  0  0  0  0  0  0  0  0  0
    8.3470    1.3670   21.4670 O   0  0  0  0  0  0  0  0  0  0  0  0
    8.1250   -7.2980   24.2100 N   0  0  0  0  0  0  0  0  0  0  0  0
    8.9650   -4.7590   25.1290 N   0  0  0  0  0  0  0  0  0  0  0  0
    6.0310   -0.0560   17.7900 N   0  0  0  0  0  0  0  0  0  0  0  0
    9.6750    2.2480   23.9370 C   0  0  0  0  0  0  0  0  0  0  0  0
    6.4700    3.2880   24.1180 C   0  0  0  0  0  0  0  0  0  0  0  0
    8.0670    0.2660   21.8740 C   0  0  0  0  0  0  0  0  0  0  0  0
    9.2240   -7.1470   24.9800 C   0  0  0  0  0  0  0  0  0  0  0  0
    9.6470   -5.8780   25.4230 C   0  0  0  0  0  0  0  0  0  0  0  0
    7.4280   -6.1860   23.9290 C   0  0  0  0  0  0  0  0  0  0  0  0
    6.7200   -0.4580   18.8750 C   0  0  0  0  0  0  0  0  0  0  0  0
    7.8470   -4.9220   24.3890 C   0  0  0  0  0  0  0  0  0  0  0  0
   12.9260    0.3690   23.4360 C   0  0  0  0  0  0  0  0  0  0  0  0
   11.9990    1.3960   23.6310 C   0  0  0  0  0  0  0  0  0  0  0  0
   11.1020   -1.2010   23.0670 C   0  0  0  0  0  0  0  0  0  0  0  0
    2.6180    1.8030   20.7250 C   0  0  0  0  0  0  0  0  0  0  0  0
    3.3060    1.3250   21.8430 C   0  0  0  0  0  0  0  0  0  0  0  0
   12.4750   -0.9350   23.1740 C   0  0  0  0  0  0  0  0  0  0  0  0
   10.6240    1.1360   23.5660 C   0  0  0  0  0  0  0  0  0  0  0  0
   10.1560   -0.1660   23.2520 C   0  0  0  0  0  0  0  0  0  0  0  0
    4.8990    0.6490   17.9900 C   0  0  0  0  0  0  0  0  0  0  0  0
    3.1520    1.5890   19.4450 C   0  0  0  0  0  0  0  0  0  0  0  0
    4.5340    0.6660   21.6880 C   0  0  0  0  0  0  0  0  0  0  0  0
    6.3070   -0.1920   20.1890 C   0  0  0  0  0  0  0  0  0  0  0  0
    4.3680    0.9070   19.2730 C   0  0  0  0  0  0  0  0  0  0  0  0
    5.0760    0.4610   20.4010 C   0  0  0  0  0  0  0  0  0  0  0  0
    6.9050    4.3350   23.3270 N   0  0  0  0  0  0  0  0  0  0  0  0
    7.0840   -3.8070   24.1120 N   0  0  0  0  0  0  0  0  0  0  0  0
    7.1530   -0.5570   21.2610 N   0  0  0  0  0  0  0  0  0  0  0  0
    8.4300    1.8280   24.3940 N   0  0  0  0  0  0  0  0  0  0  0  0
    6.1240    4.8430   22.1920 C   0  0  0  0  0  0  0  0  0  0  0  0
    7.5190    2.7430   25.0880 C   0  0  0  0  0  0  0  0  0  0  0  0
    7.5020   -2.4310   24.3650 C   0  0  0  0  0  0  0  0  0  0  0  0
    6.9480   -1.7790   21.9870 C   0  0  0  0  0  0  0  0  0  0  0  0
    7.9940    0.4180   24.3430 C   0  0  0  0  0  0  0  0  0  0  0  0
    8.0580   -1.8260   23.0540 C   0  0  0  0  0  0  0  0  0  0  0  0
    8.6230   -0.3620   23.1590 C   0  0  0  0  0  0  0  0  0  0  0  0
    9.7910   -8.0450   25.2210 H   0  0  0  0  0  0  0  0  0  0  0  0
   10.5490   -5.7550   26.0180 H   0  0  0  0  0  0  0  0  0  0  0  0
    6.5140   -6.3060   23.3410 H   0  0  0  0  0  0  0  0  0  0  0  0
    7.6570   -0.9810   18.6940 H   0  0  0  0  0  0  0  0  0  0  0  0
   13.9860    0.5880   23.5010 H   0  0  0  0  0  0  0  0  0  0  0  0
   12.3460    2.3980   23.8630 H   0  0  0  0  0  0  0  0  0  0  0  0
   10.7940   -2.2170   22.8530 H   0  0  0  0  0  0  0  0  0  0  0  0
    1.6690    2.3200   20.8540 H   0  0  0  0  0  0  0  0  0  0  0  0
    2.8830    1.4600   22.8330 H   0  0  0  0  0  0  0  0  0  0  0  0
    4.4370    1.0530   17.0960 H   0  0  0  0  0  0  0  0  0  0  0  0
    2.6080    1.9280   18.5820 H   0  0  0  0  0  0  0  0  0  0  0  0
    5.0370    0.2940   22.5720 H   0  0  0  0  0  0  0  0  0  0  0  0
    7.8520    4.6590   23.4670 H   0  0  0  0  0  0  0  0  0  0  0  0
    6.2840   -3.9340   23.5100 H   0  0  0  0  0  0  0  0  0  0  0  0
    5.1050    5.0720   22.5270 H   0  0  0  0  0  0  0  0  0  0  0  0
    6.0950    4.0670   21.4170 H   0  0  0  0  0  0  0  0  0  0  0  0
    6.5840    5.7510   21.7750 H   0  0  0  0  0  0  0  0  0  0  0  0
    7.0140    2.1990   25.8910 H   0  0  0  0  0  0  0  0  0  0  0  0
    8.0840    3.5700   25.5360 H   0  0  0  0  0  0  0  0  0  0  0  0
    8.2320   -2.3850   25.1790 H   0  0  0  0  0  0  0  0  0  0  0  0
    6.6260   -1.8700   24.7020 H   0  0  0  0  0  0  0  0  0  0  0  0
    5.9640   -1.7200   22.4620 H   0  0  0  0  0  0  0  0  0  0  0  0
    6.9800   -2.6480   21.3170 H   0  0  0  0  0  0  0  0  0  0  0  0
    6.8970    0.3730   24.2470 H   0  0  0  0  0  0  0  0  0  0  0  0
    8.2990   -0.0440   25.2920 H   0  0  0  0  0  0  0  0  0  0  0  0
    8.8040   -2.5010   22.6360 H   0  0  0  0  0  0  0  0  0  0  0  0
  8  2  2  0
  9  3  2  0
 10  4  2  0
 11  5  2  0
 12  6  2  0
 12 11  1  0
 13  5  1  0
 14  7  2  0
 15  6  1  0
 15 13  2  0
 17 16  1  0
 20 19  1  0
 21  1  1  0
 21 16  2  0
 21 18  1  0
 22  8  1  0
 22 17  2  0
 23 18  2  0
 23 22  1  0
 24  7  1  0
 25 19  2  0
 26 20  2  0
 27 14  1  0
 28 24  2  0
 28 25  1  0
 29 26  1  0
 29 27  2  0
 29 28  1  0
 30  9  1  0
 31 15  1  0
 32 10  1  0
 32 27  1  0
 33  8  1  0
 34 30  1  0
 35  9  1  0
 35 33  1  0
 36 31  1  0
 37 32  1  0
 38 33  1  0
 39 36  1  0
 39 37  1  0
 40 10  1  0
 40 23  1  0
 40 38  1  0
 40 39  1  0
 11 41  1  0
 12 42  1  0
 13 43  1  0
 14 44  1  0
 16 45  1  0
 17 46  1  0
 18 47  1  0
 19 48  1  0
 20 49  1  0
 24 50  1  0
 25 51  1  0
 26 52  1  0
 30 53  1  0
 31 54  1  0
 34 55  1  0
 34 56  1  0
 34 57  1  0
 35 58  1  0
 35 59  1  0
 36 60  1  0
 36 61  1  0
 37 62  1  0
 37 63  1  0
 38 64  1  0
 38 65  1  0
 39 66  1  0
M  END
>  <Favorite_cresset>
false

>  <Protein_cresset>
sars_P

>  <MW_cresset>
556.0

>  <#Atoms_cresset>
40

>  <SlogP_cresset>
2.9

>  <TPSA_cresset>
120.4

>  <Flexibility_cresset>
5.1

>  <HBA_cresset>
10

>  <HBD_cresset>
2

>  <Rof5_cresset>
1

>  <Confs_cresset>
0

>  <Poses_cresset>
0

$$$$
predicted (55)
  xed2sdf           3D
 
 56 61  0  0  1  0  0  0  0  0999 V2000
   13.7100   -2.0620   23.2000 Cl  0  0  0  0  0  0  0  0  0  0  0  0
   10.1930    3.6710   23.8660 O   0  0  0  0  0  0  0  0  0  0  0  0
    8.3110    1.5490   21.5380 O   0  0  0  0  0  0  0  0  0  0  0  0
    6.1230   -0.2300   17.8680 N   0  0  0  0  0  0  0  0  0  0  0  0
    5.4580    3.8900   23.7500 N   0  0  0  0  0  0  0  0  0  0  0  0
    9.8110    2.5100   23.9240 C   0  0  0  0  0  0  0  0  0  0  0  0
    8.1400    0.4280   21.9650 C   0  0  0  0  0  0  0  0  0  0  0  0
    6.8370   -0.5640   18.9590 C   0  0  0  0  0  0  0  0  0  0  0  0
    6.7760    3.9380   23.8150 C   0  0  0  0  0  0  0  0  0  0  0  0
   13.0320    0.5740   23.4980 C   0  0  0  0  0  0  0  0  0  0  0  0
   12.1110    1.6100   23.6570 C   0  0  0  0  0  0  0  0  0  0  0  0
   11.1940   -1.0000   23.2360 C   0  0  0  0  0  0  0  0  0  0  0  0
    2.8400    1.9120   20.7440 C   0  0  0  0  0  0  0  0  0  0  0  0
    3.6070    1.5910   21.8720 C   0  0  0  0  0  0  0  0  0  0  0  0
    7.2860    4.9720   22.9760 C   0  0  0  0  0  0  0  0  0  0  0  0
   12.5710   -0.7370   23.3260 C   0  0  0  0  0  0  0  0  0  0  0  0
   10.7330    1.3610   23.6060 C   0  0  0  0  0  0  0  0  0  0  0  0
   10.2480    0.0520   23.3520 C   0  0  0  0  0  0  0  0  0  0  0  0
    4.9950    0.4860   18.0440 C   0  0  0  0  0  0  0  0  0  0  0  0
    3.2980    1.5540   19.4680 C   0  0  0  0  0  0  0  0  0  0  0  0
    4.8210    0.9040   21.7310 C   0  0  0  0  0  0  0  0  0  0  0  0
    6.4780   -0.1850   20.2620 C   0  0  0  0  0  0  0  0  0  0  0  0
    6.2180    5.5480   22.3540 C   0  0  0  0  0  0  0  0  0  0  0  0
    4.5170    0.8640   19.3150 C   0  0  0  0  0  0  0  0  0  0  0  0
    5.2760    0.5300   20.4510 C   0  0  0  0  0  0  0  0  0  0  0  0
    7.3370   -0.4880   21.3420 N   0  0  0  0  0  0  0  0  0  0  0  0
    8.5260    2.1670   24.3270 N   0  0  0  0  0  0  0  0  0  0  0  0
    5.1170    4.8670   22.8510 N   0  0  0  0  0  0  0  0  0  0  0  0
    7.6120    3.2070   24.8500 C   0  0  0  0  0  0  0  0  0  0  0  0
    3.7070    5.1810   22.5960 C   0  0  0  0  0  0  0  0  0  0  0  0
    7.2390   -1.7380   22.0710 C   0  0  0  0  0  0  0  0  0  0  0  0
    8.0980    0.7400   24.4150 C   0  0  0  0  0  0  0  0  0  0  0  0
    8.1320   -1.5830   23.3210 C   0  0  0  0  0  0  0  0  0  0  0  0
    8.7080   -0.1230   23.2780 C   0  0  0  0  0  0  0  0  0  0  0  0
    7.7560   -1.1190   18.7850 H   0  0  0  0  0  0  0  0  0  0  0  0
   14.0960    0.7850   23.5270 H   0  0  0  0  0  0  0  0  0  0  0  0
   12.4760    2.6080   23.8740 H   0  0  0  0  0  0  0  0  0  0  0  0
   10.8890   -2.0280   23.0740 H   0  0  0  0  0  0  0  0  0  0  0  0
    1.8830    2.4170   20.8630 H   0  0  0  0  0  0  0  0  0  0  0  0
    3.2470    1.8450   22.8640 H   0  0  0  0  0  0  0  0  0  0  0  0
    8.3170    5.2920   22.8740 H   0  0  0  0  0  0  0  0  0  0  0  0
    4.4940    0.8020   17.1350 H   0  0  0  0  0  0  0  0  0  0  0  0
    2.6750    1.7720   18.6120 H   0  0  0  0  0  0  0  0  0  0  0  0
    5.3830    0.6330   22.6180 H   0  0  0  0  0  0  0  0  0  0  0  0
    6.1280    6.3850   21.6710 H   0  0  0  0  0  0  0  0  0  0  0  0
    6.9320    2.7310   25.5670 H   0  0  0  0  0  0  0  0  0  0  0  0
    8.1940    3.9530   25.4090 H   0  0  0  0  0  0  0  0  0  0  0  0
    3.0560    4.6310   23.2910 H   0  0  0  0  0  0  0  0  0  0  0  0
    3.4430    4.9200   21.5640 H   0  0  0  0  0  0  0  0  0  0  0  0
    3.5610    6.2550   22.7540 H   0  0  0  0  0  0  0  0  0  0  0  0
    6.1930   -1.9170   22.3520 H   0  0  0  0  0  0  0  0  0  0  0  0
    7.6050   -2.5490   21.4300 H   0  0  0  0  0  0  0  0  0  0  0  0
    7.0000    0.6790   24.3870 H   0  0  0  0  0  0  0  0  0  0  0  0
    8.4410    0.3260   25.3710 H   0  0  0  0  0  0  0  0  0  0  0  0
    7.5470   -1.7590   24.2320 H   0  0  0  0  0  0  0  0  0  0  0  0
    8.8940   -2.3620   23.3020 H   0  0  0  0  0  0  0  0  0  0  0  0
  6  2  2  0
  7  3  2  0
  8  4  2  0
  9  5  2  0
 11 10  1  0
 14 13  1  0
 15  9  1  0
 16  1  1  0
 16 10  2  0
 16 12  1  0
 17  6  1  0
 17 11  2  0
 18 12  2  0
 18 17  1  0
 19  4  1  0
 20 13  2  0
 21 14  2  0
 22  8  1  0
 23 15  2  0
 24 19  2  0
 24 20  1  0
 25 21  1  0
 25 22  2  0
 25 24  1  0
 26  7  1  0
 26 22  1  0
 27  6  1  0
 28  5  1  0
 28 23  1  0
 29  9  1  0
 29 27  1  0
 30 28  1  0
 31 26  1  0
 32 27  1  0
 33 31  1  0
 34  7  1  0
 34 18  1  0
 34 32  1  0
 34 33  1  0
  8 35  1  0
 10 36  1  0
 11 37  1  0
 12 38  1  0
 13 39  1  0
 14 40  1  0
 15 41  1  0
 19 42  1  0
 20 43  1  0
 21 44  1  0
 23 45  1  0
 29 46  1  0
 29 47  1  0
 30 48  1  0
 30 49  1  0
 30 50  1  0
 31 51  1  0
 31 52  1  0
 32 53  1  0
 32 54  1  0
 33 55  1  0
 33 56  1  0
M  END
>  <Favorite_cresset>
false

>  <Protein_cresset>
sars_P

>  <MW_cresset>
471.9

>  <#Atoms_cresset>
34

>  <SlogP_cresset>
4.0

>  <TPSA_cresset>
71.3

>  <Flexibility_cresset>
2.9

>  <HBA_cresset>
7

>  <HBD_cresset>
0

>  <Rof5_cresset>
0

>  <Confs_cresset>
0

>  <Poses_cresset>
0

$$$$
predicted (56)
  xed2sdf           3D
 
 41 43  0  0  1  0  0  0  0  0999 V2000
    8.7820    0.5920   21.5650 O   0  0  0  0  0  0  0  0  0  0  0  0
    6.2050   -0.0220   17.6940 N   0  0  0  0  0  0  0  0  0  0  0  0
    7.2250    0.1980   24.9980 S   0  0  0  0  0  0  0  0  0  0  0  0
    8.4340   -0.5270   21.8830 C   0  0  0  0  0  0  0  0  0  0  0  0
    6.9600   -0.5350   18.6850 C   0  0  0  0  0  0  0  0  0  0  0  0
    2.9650    1.4700   20.9990 C   0  0  0  0  0  0  0  0  0  0  0  0
    3.7570    0.9210   22.0180 C   0  0  0  0  0  0  0  0  0  0  0  0
    5.0550    0.6040   18.0210 C   0  0  0  0  0  0  0  0  0  0  0  0
    3.3900    1.3830   19.6650 C   0  0  0  0  0  0  0  0  0  0  0  0
    4.9770    0.3110   21.7100 C   0  0  0  0  0  0  0  0  0  0  0  0
    6.5990   -0.4710   20.0320 C   0  0  0  0  0  0  0  0  0  0  0  0
    4.6100    0.7500   19.3470 C   0  0  0  0  0  0  0  0  0  0  0  0
    5.4070    0.2070   20.3790 C   0  0  0  0  0  0  0  0  0  0  0  0
    8.9390   -1.1690   23.0290 N   0  0  0  0  0  0  0  0  0  0  0  0
    7.4160   -1.3000   21.0290 C   0  0  0  0  0  0  0  0  0  0  0  0
    7.3560   -1.5570   25.5630 C   0  0  0  0  0  0  0  0  0  0  0  0
    8.5310   -2.5470   23.4400 C   0  0  0  0  0  0  0  0  0  0  0  0
    7.3080   -2.5890   24.4070 C   0  0  0  0  0  0  0  0  0  0  0  0
   11.2300   -0.0570   23.5400 C   0  0  0  0  0  0  0  0  0  0  0  0
    9.0140    0.6440   24.8050 C   0  0  0  0  0  0  0  0  0  0  0  0
    9.8000   -0.4560   24.0450 C   0  0  0  0  0  0  0  0  0  0  0  0
   12.0840    0.1310   24.5770 F   0  0  0  0  0  0  0  0  0  0  0  0
   11.7170   -1.0620   22.7770 F   0  0  0  0  0  0  0  0  0  0  0  0
   11.2420    1.0780   22.8050 F   0  0  0  0  0  0  0  0  0  0  0  0
    7.8710   -1.0640   18.3980 H   0  0  0  0  0  0  0  0  0  0  0  0
    2.0250    1.9560   21.2470 H   0  0  0  0  0  0  0  0  0  0  0  0
    3.4280    0.9700   23.0490 H   0  0  0  0  0  0  0  0  0  0  0  0
    4.4980    1.0090   17.1820 H   0  0  0  0  0  0  0  0  0  0  0  0
    2.7600    1.7870   18.8810 H   0  0  0  0  0  0  0  0  0  0  0  0
    5.5830   -0.0840   22.5170 H   0  0  0  0  0  0  0  0  0  0  0  0
    7.9780   -2.0740   20.4970 H   0  0  0  0  0  0  0  0  0  0  0  0
    6.7230   -1.8310   21.6810 H   0  0  0  0  0  0  0  0  0  0  0  0
    6.5210   -1.7420   26.2490 H   0  0  0  0  0  0  0  0  0  0  0  0
    8.2790   -1.6830   26.1370 H   0  0  0  0  0  0  0  0  0  0  0  0
    9.3700   -3.0180   23.9590 H   0  0  0  0  0  0  0  0  0  0  0  0
    8.3260   -3.1770   22.5650 H   0  0  0  0  0  0  0  0  0  0  0  0
    6.3630   -2.4890   23.8560 H   0  0  0  0  0  0  0  0  0  0  0  0
    7.2690   -3.5820   24.8730 H   0  0  0  0  0  0  0  0  0  0  0  0
    9.0900    1.5940   24.2670 H   0  0  0  0  0  0  0  0  0  0  0  0
    9.4380    0.7840   25.8070 H   0  0  0  0  0  0  0  0  0  0  0  0
   10.0330   -1.1920   24.8270 H   0  0  0  0  0  0  0  0  0  0  0  0
  4  1  2  0
  5  2  2  0
  7  6  1  0
  8  2  1  0
  9  6  2  0
 10  7  2  0
 11  5  1  0
 12  8  2  0
 12  9  1  0
 13 10  1  0
 13 11  2  0
 13 12  1  0
 14  4  1  0
 15  4  1  0
 15 11  1  0
 16  3  1  0
 17 14  1  0
 18 16  1  0
 18 17  1  0
 20  3  1  0
 21 14  1  0
 21 19  1  0
 21 20  1  0
 22 19  1  0
 23 19  1  0
 24 19  1  0
  5 25  1  0
  6 26  1  0
  7 27  1  0
  8 28  1  0
  9 29  1  0
 10 30  1  0
 15 31  1  0
 15 32  1  0
 16 33  1  0
 16 34  1  0
 17 35  1  0
 17 36  1  0
 18 37  1  0
 18 38  1  0
 20 39  1  0
 20 40  1  0
 21 41  1  0
M  END
>  <Favorite_cresset>
false

>  <Protein_cresset>
sars_P

>  <MW_cresset>
354.4

>  <#Atoms_cresset>
24

>  <SlogP_cresset>
3.7

>  <TPSA_cresset>
33.2

>  <Flexibility_cresset>
4.4

>  <HBA_cresset>
3

>  <HBD_cresset>
0

>  <Rof5_cresset>
0

>  <Confs_cresset>
0

>  <Poses_cresset>
0

$$$$
predicted (57)
  xed2sdf           3D
 
 67 72  0  0  1  0  0  0  0  0999 V2000
   13.8160   -2.2850   23.4300 Cl  0  0  0  0  0  0  0  0  0  0  0  0
   10.1780    3.4360   23.8130 O   0  0  0  0  0  0  0  0  0  0  0  0
    5.6230    3.0300   23.8660 O   0  0  0  0  0  0  0  0  0  0  0  0
    8.4500    1.4240   21.5230 O   0  0  0  0  0  0  0  0  0  0  0  0
    5.5820   -4.8350   26.8670 N   0  0  0  0  0  0  0  0  0  0  0  0
    6.0560   -0.1590   17.8960 N   0  0  0  0  0  0  0  0  0  0  0  0
    5.7640   -5.9530   24.5110 S   0  0  0  0  0  0  0  0  0  0  0  0
    9.8790    2.2530   23.9160 C   0  0  0  0  0  0  0  0  0  0  0  0
    6.7680    3.4110   24.0210 C   0  0  0  0  0  0  0  0  0  0  0  0
    8.2110    0.3100   21.9220 C   0  0  0  0  0  0  0  0  0  0  0  0
    5.0530   -5.7730   26.1010 C   0  0  0  0  0  0  0  0  0  0  0  0
    6.5550   -4.1410   26.1870 C   0  0  0  0  0  0  0  0  0  0  0  0
    6.7860   -0.4970   18.9740 C   0  0  0  0  0  0  0  0  0  0  0  0
    6.7440   -4.5600   24.8920 C   0  0  0  0  0  0  0  0  0  0  0  0
   13.1530    0.3640   23.5790 C   0  0  0  0  0  0  0  0  0  0  0  0
   12.2320    1.4090   23.6960 C   0  0  0  0  0  0  0  0  0  0  0  0
   11.3190   -1.2020   23.2630 C   0  0  0  0  0  0  0  0  0  0  0  0
    2.7370    1.8290   20.8320 C   0  0  0  0  0  0  0  0  0  0  0  0
    3.4670    1.4340   21.9600 C   0  0  0  0  0  0  0  0  0  0  0  0
   12.6910   -0.9440   23.4050 C   0  0  0  0  0  0  0  0  0  0  0  0
   10.8500    1.1570   23.5830 C   0  0  0  0  0  0  0  0  0  0  0  0
   10.3800   -0.1440   23.2780 C   0  0  0  0  0  0  0  0  0  0  0  0
    4.9160    0.5260   18.1050 C   0  0  0  0  0  0  0  0  0  0  0  0
    3.2170    1.5430   19.5450 C   0  0  0  0  0  0  0  0  0  0  0  0
    4.6980    0.7850   21.8020 C   0  0  0  0  0  0  0  0  0  0  0  0
    6.4120   -0.1730   20.2840 C   0  0  0  0  0  0  0  0  0  0  0  0
    4.4320    0.8640   19.3840 C   0  0  0  0  0  0  0  0  0  0  0  0
    5.1880    0.4910   20.5100 C   0  0  0  0  0  0  0  0  0  0  0  0
    7.3010    4.4570   23.2870 N   0  0  0  0  0  0  0  0  0  0  0  0
    7.5780   -3.9440   23.9870 N   0  0  0  0  0  0  0  0  0  0  0  0
    7.2820   -0.5160   21.3360 N   0  0  0  0  0  0  0  0  0  0  0  0
    8.6420    1.8200   24.3990 N   0  0  0  0  0  0  0  0  0  0  0  0
    3.8460   -6.5510   26.5370 C   0  0  0  0  0  0  0  0  0  0  0  0
    6.5240    5.1700   22.2620 C   0  0  0  0  0  0  0  0  0  0  0  0
    7.7060    2.7590   25.0450 C   0  0  0  0  0  0  0  0  0  0  0  0
    8.0780   -2.5870   24.2480 C   0  0  0  0  0  0  0  0  0  0  0  0
    7.1200   -1.7580   22.0340 C   0  0  0  0  0  0  0  0  0  0  0  0
    8.2350    0.3880   24.3630 C   0  0  0  0  0  0  0  0  0  0  0  0
    8.3650   -1.8450   22.9430 C   0  0  0  0  0  0  0  0  0  0  0  0
    8.8500   -0.3570   23.1490 C   0  0  0  0  0  0  0  0  0  0  0  0
    7.0630   -3.3250   26.6870 H   0  0  0  0  0  0  0  0  0  0  0  0
    7.7200   -1.0240   18.7880 H   0  0  0  0  0  0  0  0  0  0  0  0
   14.2170    0.5650   23.6570 H   0  0  0  0  0  0  0  0  0  0  0  0
   12.5920    2.4090   23.9150 H   0  0  0  0  0  0  0  0  0  0  0  0
   11.0170   -2.2380   23.1710 H   0  0  0  0  0  0  0  0  0  0  0  0
    1.7930    2.3430   20.9590 H   0  0  0  0  0  0  0  0  0  0  0  0
    3.0750    1.6320   22.9550 H   0  0  0  0  0  0  0  0  0  0  0  0
    4.3880    0.8230   17.2090 H   0  0  0  0  0  0  0  0  0  0  0  0
    2.6520    1.8480   18.6720 H   0  0  0  0  0  0  0  0  0  0  0  0
    5.2550    0.5050   22.6880 H   0  0  0  0  0  0  0  0  0  0  0  0
    8.2950    4.6520   23.3810 H   0  0  0  0  0  0  0  0  0  0  0  0
    7.6130   -4.2980   23.0400 H   0  0  0  0  0  0  0  0  0  0  0  0
    2.9320   -6.0180   26.2490 H   0  0  0  0  0  0  0  0  0  0  0  0
    3.8270   -6.6690   27.6270 H   0  0  0  0  0  0  0  0  0  0  0  0
    3.8130   -7.5500   26.0880 H   0  0  0  0  0  0  0  0  0  0  0  0
    5.5130    5.3820   22.6340 H   0  0  0  0  0  0  0  0  0  0  0  0
    6.4340    4.5260   21.3800 H   0  0  0  0  0  0  0  0  0  0  0  0
    7.0060    6.1180   21.9900 H   0  0  0  0  0  0  0  0  0  0  0  0
    7.0930    2.2320   25.7870 H   0  0  0  0  0  0  0  0  0  0  0  0
    8.2750    3.5390   25.5670 H   0  0  0  0  0  0  0  0  0  0  0  0
    8.9890   -2.6360   24.8560 H   0  0  0  0  0  0  0  0  0  0  0  0
    7.3170   -2.0150   24.7960 H   0  0  0  0  0  0  0  0  0  0  0  0
    6.1970   -1.6980   22.6260 H   0  0  0  0  0  0  0  0  0  0  0  0
    7.0450   -2.5860   21.3180 H   0  0  0  0  0  0  0  0  0  0  0  0
    7.1400    0.3160   24.3210 H   0  0  0  0  0  0  0  0  0  0  0  0
    8.5970   -0.0790   25.2850 H   0  0  0  0  0  0  0  0  0  0  0  0
    9.1090   -2.4050   22.3630 H   0  0  0  0  0  0  0  0  0  0  0  0
  8  2  2  0
  9  3  2  0
 10  4  2  0
 11  5  2  0
 11  7  1  0
 12  5  1  0
 13  6  2  0
 14  7  1  0
 14 12  2  0
 16 15  1  0
 19 18  1  0
 20  1  1  0
 20 15  2  0
 20 17  1  0
 21  8  1  0
 21 16  2  0
 22 17  2  0
 22 21  1  0
 23  6  1  0
 24 18  2  0
 25 19  2  0
 26 13  1  0
 27 23  2  0
 27 24  1  0
 28 25  1  0
 28 26  2  0
 28 27  1  0
 29  9  1  0
 30 14  1  0
 31 10  1  0
 31 26  1  0
 32  8  1  0
 33 11  1  0
 34 29  1  0
 35  9  1  0
 35 32  1  0
 36 30  1  0
 37 31  1  0
 38 32  1  0
 39 36  1  0
 39 37  1  0
 40 10  1  0
 40 22  1  0
 40 38  1  0
 40 39  1  0
 12 41  1  0
 13 42  1  0
 15 43  1  0
 16 44  1  0
 17 45  1  0
 18 46  1  0
 19 47  1  0
 23 48  1  0
 24 49  1  0
 25 50  1  0
 29 51  1  0
 30 52  1  0
 33 53  1  0
 33 54  1  0
 33 55  1  0
 34 56  1  0
 34 57  1  0
 34 58  1  0
 35 59  1  0
 35 60  1  0
 36 61  1  0
 36 62  1  0
 37 63  1  0
 37 64  1  0
 38 65  1  0
 38 66  1  0
 39 67  1  0
M  END
>  <Favorite_cresset>
false

>  <Protein_cresset>
sars_P

>  <MW_cresset>
575.1

>  <#Atoms_cresset>
40

>  <SlogP_cresset>
3.9

>  <TPSA_cresset>
107.5

>  <Flexibility_cresset>
5.1

>  <HBA_cresset>
9

>  <HBD_cresset>
2

>  <Rof5_cresset>
1

>  <Confs_cresset>
0

>  <Poses_cresset>
0

$$$$
predicted (58)
  xed2sdf           3D
 
 57 62  0  0  1  0  0  0  0  0999 V2000
   10.3950    3.1910   23.8480 O   0  0  0  0  0  0  0  0  0  0  0  0
    8.4540    1.3120   21.4990 O   0  0  0  0  0  0  0  0  0  0  0  0
    5.4320    5.2190   22.3080 N   0  0  0  0  0  0  0  0  0  0  0  0
    5.7030    3.3730   23.8350 N   0  0  0  0  0  0  0  0  0  0  0  0
    6.1080   -0.0920   17.7670 N   0  0  0  0  0  0  0  0  0  0  0  0
    9.9930    2.0390   23.8790 C   0  0  0  0  0  0  0  0  0  0  0  0
    8.2100    0.1760   21.8490 C   0  0  0  0  0  0  0  0  0  0  0  0
    4.9740    4.1900   23.0480 C   0  0  0  0  0  0  0  0  0  0  0  0
    6.7580    5.4380   22.3450 C   0  0  0  0  0  0  0  0  0  0  0  0
    6.8010   -0.5070   18.8480 C   0  0  0  0  0  0  0  0  0  0  0  0
    7.0360    3.5900   23.8730 C   0  0  0  0  0  0  0  0  0  0  0  0
    7.6160    4.6380   23.1170 C   0  0  0  0  0  0  0  0  0  0  0  0
   13.1860    0.0310   23.4880 C   0  0  0  0  0  0  0  0  0  0  0  0
   12.2930    1.0940   23.6410 C   0  0  0  0  0  0  0  0  0  0  0  0
   11.2910   -1.4570   23.1010 C   0  0  0  0  0  0  0  0  0  0  0  0
    2.7050    1.7340   20.7030 C   0  0  0  0  0  0  0  0  0  0  0  0
    3.4430    1.3330   21.8260 C   0  0  0  0  0  0  0  0  0  0  0  0
   12.6800   -1.2500   23.2550 C   0  0  0  0  0  0  0  0  0  0  0  0
   10.9030    0.9000   23.5180 C   0  0  0  0  0  0  0  0  0  0  0  0
   10.3720   -0.3710   23.1860 C   0  0  0  0  0  0  0  0  0  0  0  0
    4.9710    0.6040   17.9680 C   0  0  0  0  0  0  0  0  0  0  0  0
    3.2090    1.4980   19.4180 C   0  0  0  0  0  0  0  0  0  0  0  0
    4.6810    0.6970   21.6620 C   0  0  0  0  0  0  0  0  0  0  0  0
    6.4140   -0.2210   20.1610 C   0  0  0  0  0  0  0  0  0  0  0  0
    4.4490    0.8580   19.2480 C   0  0  0  0  0  0  0  0  0  0  0  0
    5.1900    0.4470   20.3720 C   0  0  0  0  0  0  0  0  0  0  0  0
    7.2580   -0.6110   21.2390 N   0  0  0  0  0  0  0  0  0  0  0  0
    8.7120    1.6990   24.3140 N   0  0  0  0  0  0  0  0  0  0  0  0
    7.8280    2.7390   24.8850 C   0  0  0  0  0  0  0  0  0  0  0  0
    7.9140   -2.8370   24.1250 C   0  0  0  0  0  0  0  0  0  0  0  0
    7.0660   -1.8650   21.9350 C   0  0  0  0  0  0  0  0  0  0  0  0
    8.2240    0.2830   24.3000 C   0  0  0  0  0  0  0  0  0  0  0  0
    8.2710   -1.9830   22.8860 C   0  0  0  0  0  0  0  0  0  0  0  0
    8.8180   -0.5090   23.0920 C   0  0  0  0  0  0  0  0  0  0  0  0
   13.5380   -2.2930   23.1780 F   0  0  0  0  0  0  0  0  0  0  0  0
    3.9000    4.0230   23.0300 H   0  0  0  0  0  0  0  0  0  0  0  0
    7.1270    6.2910   21.7740 H   0  0  0  0  0  0  0  0  0  0  0  0
    7.7070   -1.0810   18.6580 H   0  0  0  0  0  0  0  0  0  0  0  0
    8.6750    4.8680   23.1600 H   0  0  0  0  0  0  0  0  0  0  0  0
   14.2550    0.2010   23.5800 H   0  0  0  0  0  0  0  0  0  0  0  0
   12.6890    2.0750   23.8940 H   0  0  0  0  0  0  0  0  0  0  0  0
   10.9630   -2.4780   22.9710 H   0  0  0  0  0  0  0  0  0  0  0  0
    1.7390    2.2170   20.8230 H   0  0  0  0  0  0  0  0  0  0  0  0
    3.0470    1.5090   22.8230 H   0  0  0  0  0  0  0  0  0  0  0  0
    4.4920    0.9820   17.0740 H   0  0  0  0  0  0  0  0  0  0  0  0
    2.6220    1.7940   18.5620 H   0  0  0  0  0  0  0  0  0  0  0  0
    5.2300    0.3850   22.5440 H   0  0  0  0  0  0  0  0  0  0  0  0
    8.4520    3.4010   25.4950 H   0  0  0  0  0  0  0  0  0  0  0  0
    7.1380    2.2520   25.5840 H   0  0  0  0  0  0  0  0  0  0  0  0
    6.8810   -2.6580   24.4540 H   0  0  0  0  0  0  0  0  0  0  0  0
    8.5930   -2.6580   24.9670 H   0  0  0  0  0  0  0  0  0  0  0  0
    7.9880   -3.8960   23.8430 H   0  0  0  0  0  0  0  0  0  0  0  0
    6.1230   -1.8200   22.4950 H   0  0  0  0  0  0  0  0  0  0  0  0
    7.0320   -2.7050   21.2330 H   0  0  0  0  0  0  0  0  0  0  0  0
    7.1310    0.2610   24.2400 H   0  0  0  0  0  0  0  0  0  0  0  0
    8.5100   -0.2020   25.2390 H   0  0  0  0  0  0  0  0  0  0  0  0
    9.0080   -2.5470   22.3030 H   0  0  0  0  0  0  0  0  0  0  0  0
  6  1  2  0
  7  2  2  0
  8  3  2  0
  8  4  1  0
  9  3  1  0
 10  5  2  0
 11  4  2  0
 12  9  2  0
 12 11  1  0
 14 13  1  0
 17 16  1  0
 18 13  2  0
 18 15  1  0
 19  6  1  0
 19 14  2  0
 20 15  2  0
 20 19  1  0
 21  5  1  0
 22 16  2  0
 23 17  2  0
 24 10  1  0
 25 21  2  0
 25 22  1  0
 26 23  1  0
 26 24  2  0
 26 25  1  0
 27  7  1  0
 27 24  1  0
 28  6  1  0
 29 11  1  0
 29 28  1  0
 31 27  1  0
 32 28  1  0
 33 30  1  0
 33 31  1  0
 34  7  1  0
 34 20  1  0
 34 32  1  0
 34 33  1  0
 35 18  1  0
  8 36  1  0
  9 37  1  0
 10 38  1  0
 12 39  1  0
 13 40  1  0
 14 41  1  0
 15 42  1  0
 16 43  1  0
 17 44  1  0
 21 45  1  0
 22 46  1  0
 23 47  1  0
 29 48  1  0
 29 49  1  0
 30 50  1  0
 30 51  1  0
 30 52  1  0
 31 53  1  0
 31 54  1  0
 32 55  1  0
 32 56  1  0
 33 57  1  0
M  END
>  <Favorite_cresset>
false

>  <Protein_cresset>
sars_P

>  <MW_cresset>
467.5

>  <#Atoms_cresset>
35

>  <SlogP_cresset>
4.0

>  <TPSA_cresset>
79.3

>  <Flexibility_cresset>
2.9

>  <HBA_cresset>
7

>  <HBD_cresset>
0

>  <Rof5_cresset>
0

>  <Confs_cresset>
0

>  <Poses_cresset>
0

$$$$
predicted (59)
  xed2sdf           3D
 
 60 65  0  0  1  0  0  0  0  0999 V2000
   13.6640   -2.2430   23.0610 Cl  0  0  0  0  0  0  0  0  0  0  0  0
    9.7930    3.2540   24.0330 O   0  0  0  0  0  0  0  0  0  0  0  0
    8.4320    0.9920   21.4090 O   0  0  0  0  0  0  0  0  0  0  0  0
    6.0060   -0.1780   17.9550 N   0  0  0  0  0  0  0  0  0  0  0  0
    5.1700    3.6190   23.6420 N   0  0  0  0  0  0  0  0  0  0  0  0
    7.1830   -4.0390   24.0880 O   0  0  0  0  0  0  0  0  0  0  0  0
    9.4880    2.0680   24.0230 C   0  0  0  0  0  0  0  0  0  0  0  0
    8.0340   -0.0260   21.9310 C   0  0  0  0  0  0  0  0  0  0  0  0
    6.6480   -0.6290   19.0510 C   0  0  0  0  0  0  0  0  0  0  0  0
    4.9770    4.6590   22.7580 C   0  0  0  0  0  0  0  0  0  0  0  0
   12.8460    0.3230   23.5390 C   0  0  0  0  0  0  0  0  0  0  0  0
   11.8760    1.3050   23.7670 C   0  0  0  0  0  0  0  0  0  0  0  0
   11.0940   -1.3250   23.1960 C   0  0  0  0  0  0  0  0  0  0  0  0
    2.5770    1.7320   20.8180 C   0  0  0  0  0  0  0  0  0  0  0  0
    3.2140    1.2150   21.9540 C   0  0  0  0  0  0  0  0  0  0  0  0
   12.4540   -0.9960   23.2900 C   0  0  0  0  0  0  0  0  0  0  0  0
   10.5050    0.9900   23.7050 C   0  0  0  0  0  0  0  0  0  0  0  0
   10.1030   -0.3290   23.3610 C   0  0  0  0  0  0  0  0  0  0  0  0
    4.8630    0.5130   18.1350 C   0  0  0  0  0  0  0  0  0  0  0  0
    3.1190    1.5000   19.5460 C   0  0  0  0  0  0  0  0  0  0  0  0
    4.4110    0.4960   21.8240 C   0  0  0  0  0  0  0  0  0  0  0  0
    6.1710   -0.4270   20.3590 C   0  0  0  0  0  0  0  0  0  0  0  0
    6.5290    3.4550   23.7860 C   0  0  0  0  0  0  0  0  0  0  0  0
    6.2370    5.0610   22.3750 C   0  0  0  0  0  0  0  0  0  0  0  0
    4.2950    0.7490   19.4020 C   0  0  0  0  0  0  0  0  0  0  0  0
    4.9530    0.2560   20.5440 C   0  0  0  0  0  0  0  0  0  0  0  0
    6.9840   -0.7810   21.4600 N   0  0  0  0  0  0  0  0  0  0  0  0
    8.2030    1.6190   24.3310 N   0  0  0  0  0  0  0  0  0  0  0  0
    7.1840    4.3250   23.0410 N   0  0  0  0  0  0  0  0  0  0  0  0
    6.7230   -4.7020   25.2800 C   0  0  0  0  0  0  0  0  0  0  0  0
    7.1690    2.5540   24.8350 C   0  0  0  0  0  0  0  0  0  0  0  0
    8.1180   -2.9640   24.3000 C   0  0  0  0  0  0  0  0  0  0  0  0
    6.8260   -2.0140   22.2170 C   0  0  0  0  0  0  0  0  0  0  0  0
    7.8690    0.1660   24.3620 C   0  0  0  0  0  0  0  0  0  0  0  0
    8.1470   -2.0960   23.0200 C   0  0  0  0  0  0  0  0  0  0  0  0
    8.5940   -0.6060   23.2160 C   0  0  0  0  0  0  0  0  0  0  0  0
    4.4660    3.1380   24.1690 H   0  0  0  0  0  0  0  0  0  0  0  0
    7.5920   -1.1440   18.8780 H   0  0  0  0  0  0  0  0  0  0  0  0
    3.9880    5.0340   22.5270 H   0  0  0  0  0  0  0  0  0  0  0  0
   13.9020    0.5760   23.5600 H   0  0  0  0  0  0  0  0  0  0  0  0
   12.2050    2.3120   24.0030 H   0  0  0  0  0  0  0  0  0  0  0  0
   10.8320   -2.3590   22.9990 H   0  0  0  0  0  0  0  0  0  0  0  0
    1.6700    2.3220   20.9190 H   0  0  0  0  0  0  0  0  0  0  0  0
    2.7960    1.3910   22.9400 H   0  0  0  0  0  0  0  0  0  0  0  0
    4.4170    0.9230   17.2350 H   0  0  0  0  0  0  0  0  0  0  0  0
    2.6290    1.9150   18.6780 H   0  0  0  0  0  0  0  0  0  0  0  0
    4.9120    0.1430   22.7200 H   0  0  0  0  0  0  0  0  0  0  0  0
    6.5460    5.8620   21.7080 H   0  0  0  0  0  0  0  0  0  0  0  0
    7.5540   -5.2060   25.7890 H   0  0  0  0  0  0  0  0  0  0  0  0
    6.2620   -3.9910   25.9830 H   0  0  0  0  0  0  0  0  0  0  0  0
    5.9750   -5.4550   25.0010 H   0  0  0  0  0  0  0  0  0  0  0  0
    7.6320    3.1750   25.6140 H   0  0  0  0  0  0  0  0  0  0  0  0
    6.3840    1.9690   25.3240 H   0  0  0  0  0  0  0  0  0  0  0  0
    9.1300   -3.3550   24.4700 H   0  0  0  0  0  0  0  0  0  0  0  0
    7.8230   -2.3750   25.1770 H   0  0  0  0  0  0  0  0  0  0  0  0
    5.9500   -1.9350   22.8710 H   0  0  0  0  0  0  0  0  0  0  0  0
    6.7050   -2.8730   21.5440 H   0  0  0  0  0  0  0  0  0  0  0  0
    6.7810    0.0490   24.2850 H   0  0  0  0  0  0  0  0  0  0  0  0
    8.1820   -0.2430   25.3310 H   0  0  0  0  0  0  0  0  0  0  0  0
    8.8310   -2.5680   22.3020 H   0  0  0  0  0  0  0  0  0  0  0  0
  7  2  2  0
  8  3  2  0
  9  4  2  0
 10  5  1  0
 12 11  1  0
 15 14  1  0
 16  1  1  0
 16 11  2  0
 16 13  1  0
 17  7  1  0
 17 12  2  0
 18 13  2  0
 18 17  1  0
 19  4  1  0
 20 14  2  0
 21 15  2  0
 22  9  1  0
 23  5  1  0
 24 10  2  0
 25 19  2  0
 25 20  1  0
 26 21  1  0
 26 22  2  0
 26 25  1  0
 27  8  1  0
 27 22  1  0
 28  7  1  0
 29 23  2  0
 29 24  1  0
 30  6  1  0
 31 23  1  0
 31 28  1  0
 32  6  1  0
 33 27  1  0
 34 28  1  0
 35 32  1  0
 35 33  1  0
 36  8  1  0
 36 18  1  0
 36 34  1  0
 36 35  1  0
  5 37  1  0
  9 38  1  0
 10 39  1  0
 11 40  1  0
 12 41  1  0
 13 42  1  0
 14 43  1  0
 15 44  1  0
 19 45  1  0
 20 46  1  0
 21 47  1  0
 24 48  1  0
 30 49  1  0
 30 50  1  0
 30 51  1  0
 31 52  1  0
 31 53  1  0
 32 54  1  0
 32 55  1  0
 33 56  1  0
 33 57  1  0
 34 58  1  0
 34 59  1  0
 35 60  1  0
M  END
>  <Favorite_cresset>
false

>  <Protein_cresset>
sars_P

>  <MW_cresset>
502.0

>  <#Atoms_cresset>
36

>  <SlogP_cresset>
3.8

>  <TPSA_cresset>
91.4

>  <Flexibility_cresset>
4.9

>  <HBA_cresset>
8

>  <HBD_cresset>
1

>  <Rof5_cresset>
1

>  <Confs_cresset>
0

>  <Poses_cresset>
0

$$$$
predicted (60)
  xed2sdf           3D
 
 38 41  0  0  0  0  0  0  0  0999 V2000
    7.9220    1.2780   21.7740 O   0  0  0  0  0  0  0  0  0  0  0  0
    6.0100   -0.1890   17.8760 N   0  0  0  0  0  0  0  0  0  0  0  0
   13.3300   -1.9790   23.4580 S   0  0  0  0  0  0  0  0  0  0  0  0
    8.0490    0.1060   22.0750 C   0  0  0  0  0  0  0  0  0  0  0  0
    6.6960   -0.6400   18.9450 C   0  0  0  0  0  0  0  0  0  0  0  0
   13.8390   -0.2840   23.4410 C   0  0  0  0  0  0  0  0  0  0  0  0
   11.6420   -1.4850   23.4120 C   0  0  0  0  0  0  0  0  0  0  0  0
   12.7620    0.5600   23.3810 C   0  0  0  0  0  0  0  0  0  0  0  0
    2.7410    1.8090   20.8260 C   0  0  0  0  0  0  0  0  0  0  0  0
    3.4700    1.4090   21.9550 C   0  0  0  0  0  0  0  0  0  0  0  0
   11.5260   -0.1250   23.3760 C   0  0  0  0  0  0  0  0  0  0  0  0
    4.8940    0.5240   18.1090 C   0  0  0  0  0  0  0  0  0  0  0  0
    3.2240    1.5290   19.5470 C   0  0  0  0  0  0  0  0  0  0  0  0
    4.6630    0.6890   21.7990 C   0  0  0  0  0  0  0  0  0  0  0  0
    6.3040   -0.3950   20.2770 C   0  0  0  0  0  0  0  0  0  0  0  0
    4.4160    0.8180   19.3880 C   0  0  0  0  0  0  0  0  0  0  0  0
    5.1350    0.3690   20.5090 C   0  0  0  0  0  0  0  0  0  0  0  0
    9.0870   -0.3140   22.9230 N   0  0  0  0  0  0  0  0  0  0  0  0
    7.1390   -0.9720   21.4320 C   0  0  0  0  0  0  0  0  0  0  0  0
   10.2110    0.5990   23.2580 C   0  0  0  0  0  0  0  0  0  0  0  0
   10.4260   -2.3830   23.3230 C   0  0  0  0  0  0  0  0  0  0  0  0
    9.1370   -1.5980   23.6720 C   0  0  0  0  0  0  0  0  0  0  0  0
    7.5870   -1.2310   18.7320 H   0  0  0  0  0  0  0  0  0  0  0  0
   14.8830   -0.0140   23.4240 H   0  0  0  0  0  0  0  0  0  0  0  0
   12.8300    1.6370   23.3140 H   0  0  0  0  0  0  0  0  0  0  0  0
    1.7960    2.3270   20.9370 H   0  0  0  0  0  0  0  0  0  0  0  0
    3.1030    1.6390   22.9500 H   0  0  0  0  0  0  0  0  0  0  0  0
    4.3540    0.8530   17.2350 H   0  0  0  0  0  0  0  0  0  0  0  0
    2.6650    1.8320   18.6710 H   0  0  0  0  0  0  0  0  0  0  0  0
    5.2010    0.3840   22.6910 H   0  0  0  0  0  0  0  0  0  0  0  0
    7.7520   -1.8150   21.0840 H   0  0  0  0  0  0  0  0  0  0  0  0
    6.4680   -1.3730   22.1980 H   0  0  0  0  0  0  0  0  0  0  0  0
   10.3200    1.3420   22.4650 H   0  0  0  0  0  0  0  0  0  0  0  0
    9.9760    1.1270   24.1910 H   0  0  0  0  0  0  0  0  0  0  0  0
   10.3120   -2.7670   22.2980 H   0  0  0  0  0  0  0  0  0  0  0  0
   10.5310   -3.2500   23.9940 H   0  0  0  0  0  0  0  0  0  0  0  0
    8.2610   -2.2220   23.4630 H   0  0  0  0  0  0  0  0  0  0  0  0
    9.1350   -1.3800   24.7520 H   0  0  0  0  0  0  0  0  0  0  0  0
  4  1  2  0
  5  2  2  0
  6  3  1  0
  7  3  1  0
  8  6  2  0
 10  9  1  0
 11  7  2  0
 11  8  1  0
 12  2  1  0
 13  9  2  0
 14 10  2  0
 15  5  1  0
 16 12  2  0
 16 13  1  0
 17 14  1  0
 17 15  2  0
 17 16  1  0
 18  4  1  0
 19  4  1  0
 19 15  1  0
 20 11  1  0
 20 18  1  0
 21  7  1  0
 22 18  1  0
 22 21  1  0
  5 23  1  0
  6 24  1  0
  8 25  1  0
  9 26  1  0
 10 27  1  0
 12 28  1  0
 13 29  1  0
 14 30  1  0
 19 31  1  0
 19 32  1  0
 20 33  1  0
 20 34  1  0
 21 35  1  0
 21 36  1  0
 22 37  1  0
 22 38  1  0
M  END
>  <Favorite_cresset>
false

>  <Protein_cresset>
sars_P

>  <MW_cresset>
308.4

>  <#Atoms_cresset>
22

>  <SlogP_cresset>
3.4

>  <TPSA_cresset>
33.2

>  <Flexibility_cresset>
2.7

>  <HBA_cresset>
3

>  <HBD_cresset>
0

>  <Rof5_cresset>
0

>  <Confs_cresset>
0

>  <Poses_cresset>
0

$$$$
predicted (61)
  xed2sdf           3D
 
 64 70  0  0  1  0  0  0  0  0999 V2000
   13.6470   -2.1680   22.9980 Cl  0  0  0  0  0  0  0  0  0  0  0  0
   10.1260    3.5680   23.7860 O   0  0  0  0  0  0  0  0  0  0  0  0
    8.3370    1.3280   21.4180 O   0  0  0  0  0  0  0  0  0  0  0  0
    7.0170   -5.8000   21.9650 N   0  0  0  0  0  0  0  0  0  0  0  0
    7.4830   -4.7490   22.7340 N   0  0  0  0  0  0  0  0  0  0  0  0
    5.3870    5.8100   22.2460 N   0  0  0  0  0  0  0  0  0  0  0  0
    6.6650    6.0840   22.5780 N   0  0  0  0  0  0  0  0  0  0  0  0
    6.0760   -0.1310   17.9240 N   0  0  0  0  0  0  0  0  0  0  0  0
    5.8060   -6.0190   24.2260 S   0  0  0  0  0  0  0  0  0  0  0  0
    9.7480    2.4050   23.8340 C   0  0  0  0  0  0  0  0  0  0  0  0
    8.0400    0.2760   21.9360 C   0  0  0  0  0  0  0  0  0  0  0  0
    6.0960   -6.5060   22.5810 C   0  0  0  0  0  0  0  0  0  0  0  0
    6.8450   -4.6630   23.8820 C   0  0  0  0  0  0  0  0  0  0  0  0
    4.8280    4.6330   22.5990 C   0  0  0  0  0  0  0  0  0  0  0  0
    7.3820    5.2010   23.3060 C   0  0  0  0  0  0  0  0  0  0  0  0
    6.7030   -0.5470   19.0420 C   0  0  0  0  0  0  0  0  0  0  0  0
   12.9740    0.4480   23.4130 C   0  0  0  0  0  0  0  0  0  0  0  0
   12.0620    1.4930   23.5670 C   0  0  0  0  0  0  0  0  0  0  0  0
    5.5330    3.6620   23.3260 C   0  0  0  0  0  0  0  0  0  0  0  0
   11.1210   -1.0990   23.1100 C   0  0  0  0  0  0  0  0  0  0  0  0
    2.5540    1.7780   20.6810 C   0  0  0  0  0  0  0  0  0  0  0  0
    3.2290    1.3800   21.8420 C   0  0  0  0  0  0  0  0  0  0  0  0
   12.5030   -0.8500   23.1870 C   0  0  0  0  0  0  0  0  0  0  0  0
   10.6770    1.2580   23.5200 C   0  0  0  0  0  0  0  0  0  0  0  0
    6.8430    3.9640   23.7250 C   0  0  0  0  0  0  0  0  0  0  0  0
   10.1810   -0.0470   23.2640 C   0  0  0  0  0  0  0  0  0  0  0  0
    4.9410    0.5790   18.0720 C   0  0  0  0  0  0  0  0  0  0  0  0
    3.1270    1.5230   19.4280 C   0  0  0  0  0  0  0  0  0  0  0  0
    4.4550    0.7060   21.7480 C   0  0  0  0  0  0  0  0  0  0  0  0
    6.2430   -0.2620   20.3390 C   0  0  0  0  0  0  0  0  0  0  0  0
    4.3530    0.8440   19.3230 C   0  0  0  0  0  0  0  0  0  0  0  0
    5.0200    0.4220   20.4870 C   0  0  0  0  0  0  0  0  0  0  0  0
    6.9200   -3.5690   24.7290 N   0  0  0  0  0  0  0  0  0  0  0  0
    7.0610   -0.5610   21.4570 N   0  0  0  0  0  0  0  0  0  0  0  0
    8.4550    2.0660   24.2130 N   0  0  0  0  0  0  0  0  0  0  0  0
    7.5470    3.0900   24.7570 C   0  0  0  0  0  0  0  0  0  0  0  0
    7.7740   -2.3350   24.6810 C   0  0  0  0  0  0  0  0  0  0  0  0
    6.8400   -1.7060   22.3290 C   0  0  0  0  0  0  0  0  0  0  0  0
    8.0360    0.6510   24.3510 C   0  0  0  0  0  0  0  0  0  0  0  0
    8.0690   -1.7360   23.2620 C   0  0  0  0  0  0  0  0  0  0  0  0
    8.6380   -0.2490   23.2370 C   0  0  0  0  0  0  0  0  0  0  0  0
    5.5870   -7.3670   22.1610 H   0  0  0  0  0  0  0  0  0  0  0  0
    3.7790    4.4870   22.3480 H   0  0  0  0  0  0  0  0  0  0  0  0
    8.3780    5.5220   23.6140 H   0  0  0  0  0  0  0  0  0  0  0  0
    7.6290   -1.0960   18.8980 H   0  0  0  0  0  0  0  0  0  0  0  0
   14.0380    0.6510   23.4770 H   0  0  0  0  0  0  0  0  0  0  0  0
   12.4310    2.4900   23.7830 H   0  0  0  0  0  0  0  0  0  0  0  0
    5.0510    2.7410   23.6410 H   0  0  0  0  0  0  0  0  0  0  0  0
   10.8100   -2.1220   22.9550 H   0  0  0  0  0  0  0  0  0  0  0  0
    1.5930    2.2830   20.7520 H   0  0  0  0  0  0  0  0  0  0  0  0
    2.8010    1.5950   22.8170 H   0  0  0  0  0  0  0  0  0  0  0  0
    4.5130    0.9820   17.1600 H   0  0  0  0  0  0  0  0  0  0  0  0
    2.5980    1.8390   18.5420 H   0  0  0  0  0  0  0  0  0  0  0  0
    4.9510    0.4000   22.6620 H   0  0  0  0  0  0  0  0  0  0  0  0
    6.2840   -3.6240   25.5160 H   0  0  0  0  0  0  0  0  0  0  0  0
    8.1290    3.7470   25.4150 H   0  0  0  0  0  0  0  0  0  0  0  0
    6.7930    2.6030   25.3860 H   0  0  0  0  0  0  0  0  0  0  0  0
    8.7320   -2.5160   25.1950 H   0  0  0  0  0  0  0  0  0  0  0  0
    7.2360   -1.5700   25.2560 H   0  0  0  0  0  0  0  0  0  0  0  0
    5.9260   -1.5780   22.9290 H   0  0  0  0  0  0  0  0  0  0  0  0
    6.7820   -2.6170   21.7210 H   0  0  0  0  0  0  0  0  0  0  0  0
    6.9420    0.5840   24.3130 H   0  0  0  0  0  0  0  0  0  0  0  0
    8.3640    0.2900   25.3320 H   0  0  0  0  0  0  0  0  0  0  0  0
    8.7750   -2.3930   22.7510 H   0  0  0  0  0  0  0  0  0  0  0  0
  5  4  1  0
  7  6  2  0
 10  2  2  0
 11  3  2  0
 12  4  2  0
 12  9  1  0
 13  5  2  0
 13  9  1  0
 14  6  1  0
 15  7  1  0
 16  8  2  0
 18 17  1  0
 19 14  2  0
 22 21  1  0
 23  1  1  0
 23 17  2  0
 23 20  1  0
 24 10  1  0
 24 18  2  0
 25 15  2  0
 25 19  1  0
 26 20  2  0
 26 24  1  0
 27  8  1  0
 28 21  2  0
 29 22  2  0
 30 16  1  0
 31 27  2  0
 31 28  1  0
 32 29  1  0
 32 30  2  0
 32 31  1  0
 33 13  1  0
 34 11  1  0
 34 30  1  0
 35 10  1  0
 36 25  1  0
 36 35  1  0
 37 33  1  0
 38 34  1  0
 39 35  1  0
 40 37  1  0
 40 38  1  0
 41 11  1  0
 41 26  1  0
 41 39  1  0
 41 40  1  0
 12 42  1  0
 14 43  1  0
 15 44  1  0
 16 45  1  0
 17 46  1  0
 18 47  1  0
 19 48  1  0
 20 49  1  0
 21 50  1  0
 22 51  1  0
 27 52  1  0
 28 53  1  0
 29 54  1  0
 33 55  1  0
 36 56  1  0
 36 57  1  0
 37 58  1  0
 37 59  1  0
 38 60  1  0
 38 61  1  0
 39 62  1  0
 39 63  1  0
 40 64  1  0
M  END
>  <Favorite_cresset>
false

>  <Protein_cresset>
sars_P

>  <MW_cresset>
583.1

>  <#Atoms_cresset>
41

>  <SlogP_cresset>
4.2

>  <TPSA_cresset>
117.1

>  <Flexibility_cresset>
5.1

>  <HBA_cresset>
10

>  <HBD_cresset>
1

>  <Rof5_cresset>
1

>  <Confs_cresset>
0

>  <Poses_cresset>
0

$$$$
predicted (62)
  xed2sdf           3D
 
 69 75  0  0  1  0  0  0  0  0999 V2000
   13.7630   -2.5360   22.9850 Cl  0  0  0  0  0  0  0  0  0  0  0  0
   10.2000    3.1460   23.8370 O   0  0  0  0  0  0  0  0  0  0  0  0
    8.5460    1.1320   21.5130 O   0  0  0  0  0  0  0  0  0  0  0  0
    6.1300   -0.2010   17.9210 N   0  0  0  0  0  0  0  0  0  0  0  0
    4.8870    8.6220   22.2130 O   0  0  0  0  0  0  0  0  0  0  0  0
    9.8470    1.9870   23.9680 C   0  0  0  0  0  0  0  0  0  0  0  0
    8.2000    0.0630   21.9600 C   0  0  0  0  0  0  0  0  0  0  0  0
    6.8090   -0.5980   19.0140 C   0  0  0  0  0  0  0  0  0  0  0  0
   13.1020    0.0560   23.4980 C   0  0  0  0  0  0  0  0  0  0  0  0
   12.1960    1.0940   23.7290 C   0  0  0  0  0  0  0  0  0  0  0  0
   11.2480   -1.4700   23.1350 C   0  0  0  0  0  0  0  0  0  0  0  0
    2.7420    1.7490   20.7970 C   0  0  0  0  0  0  0  0  0  0  0  0
    3.4250    1.3140   21.9400 C   0  0  0  0  0  0  0  0  0  0  0  0
   12.6260   -1.2260   23.2230 C   0  0  0  0  0  0  0  0  0  0  0  0
   10.8050    0.8560   23.6790 C   0  0  0  0  0  0  0  0  0  0  0  0
   10.3090   -0.4250   23.3300 C   0  0  0  0  0  0  0  0  0  0  0  0
    4.9890    0.4910   18.1080 C   0  0  0  0  0  0  0  0  0  0  0  0
    3.2560    1.4830   19.5160 C   0  0  0  0  0  0  0  0  0  0  0  0
    4.6420    0.6290   21.8040 C   0  0  0  0  0  0  0  0  0  0  0  0
    6.3850   -0.3270   20.3230 C   0  0  0  0  0  0  0  0  0  0  0  0
    4.4660    0.7830   19.3780 C   0  0  0  0  0  0  0  0  0  0  0  0
    5.1700    0.3600   20.5200 C   0  0  0  0  0  0  0  0  0  0  0  0
    7.2100   -0.7090   21.4000 N   0  0  0  0  0  0  0  0  0  0  0  0
    8.5440    1.6330   24.3380 N   0  0  0  0  0  0  0  0  0  0  0  0
    5.4670    7.5650   21.3620 C   0  0  0  0  0  0  0  0  0  0  0  0
    5.5360    7.9960   23.3780 C   0  0  0  0  0  0  0  0  0  0  0  0
    7.5250    2.6910   24.6260 C   0  0  0  0  0  0  0  0  0  0  0  0
    4.1750    5.8140   22.8180 C   0  0  0  0  0  0  0  0  0  0  0  0
    5.4590    6.6340   22.6200 C   0  0  0  0  0  0  0  0  0  0  0  0
    7.9340   -2.9130   24.2570 C   0  0  0  0  0  0  0  0  0  0  0  0
    7.0360   -1.9790   22.0520 C   0  0  0  0  0  0  0  0  0  0  0  0
    8.1380    0.1910   24.3930 C   0  0  0  0  0  0  0  0  0  0  0  0
    6.7540    3.1440   23.3570 C   0  0  0  0  0  0  0  0  0  0  0  0
    4.6540    4.3640   22.9540 C   0  0  0  0  0  0  0  0  0  0  0  0
    6.5920    5.6000   22.8580 C   0  0  0  0  0  0  0  0  0  0  0  0
    8.2510   -2.0910   22.9920 C   0  0  0  0  0  0  0  0  0  0  0  0
    8.7710   -0.6040   23.2140 C   0  0  0  0  0  0  0  0  0  0  0  0
    6.0050    4.4180   23.5260 N   0  0  0  0  0  0  0  0  0  0  0  0
    7.7380   -1.1330   18.8350 H   0  0  0  0  0  0  0  0  0  0  0  0
   14.1720    0.2490   23.5360 H   0  0  0  0  0  0  0  0  0  0  0  0
   12.5770    2.0840   23.9590 H   0  0  0  0  0  0  0  0  0  0  0  0
   10.9670   -2.4920   22.9070 H   0  0  0  0  0  0  0  0  0  0  0  0
    1.7980    2.2710   20.9050 H   0  0  0  0  0  0  0  0  0  0  0  0
    3.0080    1.5040   22.9290 H   0  0  0  0  0  0  0  0  0  0  0  0
    4.4850    0.8290   17.2100 H   0  0  0  0  0  0  0  0  0  0  0  0
    2.7170    1.8120   18.6360 H   0  0  0  0  0  0  0  0  0  0  0  0
    5.1610    0.3080   22.6990 H   0  0  0  0  0  0  0  0  0  0  0  0
    6.4570    7.8350   20.9840 H   0  0  0  0  0  0  0  0  0  0  0  0
    4.7960    7.2790   20.5430 H   0  0  0  0  0  0  0  0  0  0  0  0
    4.9300    8.0560   24.2900 H   0  0  0  0  0  0  0  0  0  0  0  0
    6.5480    8.3890   23.5420 H   0  0  0  0  0  0  0  0  0  0  0  0
    8.0280    3.5620   25.0650 H   0  0  0  0  0  0  0  0  0  0  0  0
    6.8050    2.3160   25.3640 H   0  0  0  0  0  0  0  0  0  0  0  0
    3.6450    6.1370   23.7220 H   0  0  0  0  0  0  0  0  0  0  0  0
    3.4810    5.9080   21.9710 H   0  0  0  0  0  0  0  0  0  0  0  0
    6.9770   -2.5930   24.6930 H   0  0  0  0  0  0  0  0  0  0  0  0
    8.7370   -2.8060   24.9980 H   0  0  0  0  0  0  0  0  0  0  0  0
    7.8460   -3.9800   24.0060 H   0  0  0  0  0  0  0  0  0  0  0  0
    6.0950   -1.9470   22.6100 H   0  0  0  0  0  0  0  0  0  0  0  0
    6.9930   -2.7890   21.3100 H   0  0  0  0  0  0  0  0  0  0  0  0
    7.0490    0.0980   24.3780 H   0  0  0  0  0  0  0  0  0  0  0  0
    8.5080   -0.2460   25.3250 H   0  0  0  0  0  0  0  0  0  0  0  0
    7.4560    3.2350   22.5200 H   0  0  0  0  0  0  0  0  0  0  0  0
    6.0490    2.3510   23.1000 H   0  0  0  0  0  0  0  0  0  0  0  0
    3.9690    3.7610   23.5610 H   0  0  0  0  0  0  0  0  0  0  0  0
    4.7120    3.9480   21.9400 H   0  0  0  0  0  0  0  0  0  0  0  0
    7.3990    6.0400   23.4570 H   0  0  0  0  0  0  0  0  0  0  0  0
    6.9840    5.3150   21.8730 H   0  0  0  0  0  0  0  0  0  0  0  0
    8.9810   -2.6430   22.3890 H   0  0  0  0  0  0  0  0  0  0  0  0
  6  2  2  0
  7  3  2  0
  8  4  2  0
 10  9  1  0
 13 12  1  0
 14  1  1  0
 14  9  2  0
 14 11  1  0
 15  6  1  0
 15 10  2  0
 16 11  2  0
 16 15  1  0
 17  4  1  0
 18 12  2  0
 19 13  2  0
 20  8  1  0
 21 17  2  0
 21 18  1  0
 22 19  1  0
 22 20  2  0
 22 21  1  0
 23  7  1  0
 23 20  1  0
 24  6  1  0
 25  5  1  0
 26  5  1  0
 27 24  1  0
 29 25  1  0
 29 26  1  0
 29 28  1  0
 31 23  1  0
 32 24  1  0
 33 27  1  0
 34 28  1  0
 35 29  1  0
 36 30  1  0
 36 31  1  0
 37  7  1  0
 37 16  1  0
 37 32  1  0
 37 36  1  0
 38 33  1  0
 38 34  1  0
 38 35  1  0
  8 39  1  0
  9 40  1  0
 10 41  1  0
 11 42  1  0
 12 43  1  0
 13 44  1  0
 17 45  1  0
 18 46  1  0
 19 47  1  0
 25 48  1  0
 25 49  1  0
 26 50  1  0
 26 51  1  0
 27 52  1  0
 27 53  1  0
 28 54  1  0
 28 55  1  0
 30 56  1  0
 30 57  1  0
 30 58  1  0
 31 59  1  0
 31 60  1  0
 32 61  1  0
 32 62  1  0
 33 63  1  0
 33 64  1  0
 34 65  1  0
 34 66  1  0
 35 67  1  0
 35 68  1  0
 36 69  1  0
M  END
>  <Favorite_cresset>
false

>  <Protein_cresset>
sars_P

>  <MW_cresset>
531.1

>  <#Atoms_cresset>
38

>  <SlogP_cresset>
4.0

>  <TPSA_cresset>
66.0

>  <Flexibility_cresset>
4.4

>  <HBA_cresset>
7

>  <HBD_cresset>
0

>  <Rof5_cresset>
1

>  <Confs_cresset>
0

>  <Poses_cresset>
0

$$$$
predicted (63)
  xed2sdf           3D
 
 56 61  0  0  1  0  0  0  0  0999 V2000
   13.6080   -2.1880   23.0760 Cl  0  0  0  0  0  0  0  0  0  0  0  0
    9.9840    3.4470   24.0250 O   0  0  0  0  0  0  0  0  0  0  0  0
    8.2610    1.3970   21.5380 O   0  0  0  0  0  0  0  0  0  0  0  0
    6.1020   -0.0350   17.7940 N   0  0  0  0  0  0  0  0  0  0  0  0
    5.2730    3.4970   23.6730 N   0  0  0  0  0  0  0  0  0  0  0  0
    9.6260    2.2790   24.0170 C   0  0  0  0  0  0  0  0  0  0  0  0
    8.0250    0.2740   21.9360 C   0  0  0  0  0  0  0  0  0  0  0  0
    6.7820   -0.4720   18.8730 C   0  0  0  0  0  0  0  0  0  0  0  0
    6.5810    3.5940   23.8140 C   0  0  0  0  0  0  0  0  0  0  0  0
   12.8870    0.4140   23.4560 C   0  0  0  0  0  0  0  0  0  0  0  0
   11.9570    1.4390   23.6400 C   0  0  0  0  0  0  0  0  0  0  0  0
   11.0550   -1.1690   23.1620 C   0  0  0  0  0  0  0  0  0  0  0  0
    2.6690    1.7300   20.7370 C   0  0  0  0  0  0  0  0  0  0  0  0
    3.3800    1.2820   21.8590 C   0  0  0  0  0  0  0  0  0  0  0  0
    7.1040    4.6240   22.9830 C   0  0  0  0  0  0  0  0  0  0  0  0
   12.4340   -0.8950   23.2500 C   0  0  0  0  0  0  0  0  0  0  0  0
   10.5710    1.1700   23.6240 C   0  0  0  0  0  0  0  0  0  0  0  0
   10.0940   -0.1340   23.3290 C   0  0  0  0  0  0  0  0  0  0  0  0
    4.9690    0.6680   18.0050 C   0  0  0  0  0  0  0  0  0  0  0  0
    3.1970    1.5400   19.4570 C   0  0  0  0  0  0  0  0  0  0  0  0
    4.6190    0.6450   21.7000 C   0  0  0  0  0  0  0  0  0  0  0  0
    6.3670   -0.2300   20.1930 C   0  0  0  0  0  0  0  0  0  0  0  0
    6.0550    5.1950   22.3330 C   0  0  0  0  0  0  0  0  0  0  0  0
    4.4310    0.8920   19.2860 C   0  0  0  0  0  0  0  0  0  0  0  0
    5.1430    0.4360   20.4090 C   0  0  0  0  0  0  0  0  0  0  0  0
    7.2020   -0.5970   21.2760 N   0  0  0  0  0  0  0  0  0  0  0  0
    8.3420    1.8950   24.4060 N   0  0  0  0  0  0  0  0  0  0  0  0
    4.9570    4.4690   22.7500 N   0  0  0  0  0  0  0  0  0  0  0  0
    7.3900    2.9090   24.8940 C   0  0  0  0  0  0  0  0  0  0  0  0
    3.5690    4.7470   22.3660 C   0  0  0  0  0  0  0  0  0  0  0  0
    7.0590   -1.8670   21.9600 C   0  0  0  0  0  0  0  0  0  0  0  0
    7.9010    0.4730   24.4050 C   0  0  0  0  0  0  0  0  0  0  0  0
    7.9840   -1.7900   23.1940 C   0  0  0  0  0  0  0  0  0  0  0  0
    8.5520   -0.3270   23.2420 C   0  0  0  0  0  0  0  0  0  0  0  0
    7.7050   -1.0170   18.6750 H   0  0  0  0  0  0  0  0  0  0  0  0
   13.9510    0.6280   23.5180 H   0  0  0  0  0  0  0  0  0  0  0  0
   12.3200    2.4410   23.8540 H   0  0  0  0  0  0  0  0  0  0  0  0
   10.7690   -2.1960   22.9760 H   0  0  0  0  0  0  0  0  0  0  0  0
    1.7070    2.2190   20.8540 H   0  0  0  0  0  0  0  0  0  0  0  0
    2.9670    1.4250   22.8500 H   0  0  0  0  0  0  0  0  0  0  0  0
    8.1270    4.9680   22.9380 H   0  0  0  0  0  0  0  0  0  0  0  0
    4.5090    1.0960   17.1210 H   0  0  0  0  0  0  0  0  0  0  0  0
    2.6310    1.8710   18.5990 H   0  0  0  0  0  0  0  0  0  0  0  0
    5.1520    0.3000   22.5810 H   0  0  0  0  0  0  0  0  0  0  0  0
    5.9710    6.0290   21.6390 H   0  0  0  0  0  0  0  0  0  0  0  0
    6.6960    2.4340   25.6000 H   0  0  0  0  0  0  0  0  0  0  0  0
    7.9480    3.6750   25.4490 H   0  0  0  0  0  0  0  0  0  0  0  0
    2.8640    4.4530   23.1550 H   0  0  0  0  0  0  0  0  0  0  0  0
    3.3370    4.2150   21.4370 H   0  0  0  0  0  0  0  0  0  0  0  0
    3.4750    5.8250   22.1800 H   0  0  0  0  0  0  0  0  0  0  0  0
    6.0140   -2.0140   22.2550 H   0  0  0  0  0  0  0  0  0  0  0  0
    7.3500   -2.6800   21.2890 H   0  0  0  0  0  0  0  0  0  0  0  0
    6.8070    0.4400   24.3220 H   0  0  0  0  0  0  0  0  0  0  0  0
    8.1620   -0.0070   25.3580 H   0  0  0  0  0  0  0  0  0  0  0  0
    7.4100   -2.0220   24.1010 H   0  0  0  0  0  0  0  0  0  0  0  0
    8.7570   -2.5530   23.0860 H   0  0  0  0  0  0  0  0  0  0  0  0
  6  2  2  0
  7  3  2  0
  8  4  2  0
  9  5  2  0
 11 10  1  0
 14 13  1  0
 15  9  1  0
 16  1  1  0
 16 10  2  0
 16 12  1  0
 17  6  1  0
 17 11  2  0
 18 12  2  0
 18 17  1  0
 19  4  1  0
 20 13  2  0
 21 14  2  0
 22  8  1  0
 23 15  2  0
 24 19  2  0
 24 20  1  0
 25 21  1  0
 25 22  2  0
 25 24  1  0
 26  7  1  0
 26 22  1  0
 27  6  1  0
 28  5  1  0
 28 23  1  0
 29  9  1  0
 29 27  1  0
 30 28  1  0
 31 26  1  0
 32 27  1  0
 33 31  1  0
 34  7  1  0
 34 18  1  0
 34 32  1  0
 34 33  1  0
  8 35  1  0
 10 36  1  0
 11 37  1  0
 12 38  1  0
 13 39  1  0
 14 40  1  0
 15 41  1  0
 19 42  1  0
 20 43  1  0
 21 44  1  0
 23 45  1  0
 29 46  1  0
 29 47  1  0
 30 48  1  0
 30 49  1  0
 30 50  1  0
 31 51  1  0
 31 52  1  0
 32 53  1  0
 32 54  1  0
 33 55  1  0
 33 56  1  0
M  END
>  <Favorite_cresset>
false

>  <Protein_cresset>
sars_P

>  <MW_cresset>
471.9

>  <#Atoms_cresset>
34

>  <SlogP_cresset>
4.0

>  <TPSA_cresset>
71.3

>  <Flexibility_cresset>
2.9

>  <HBA_cresset>
7

>  <HBD_cresset>
0

>  <Rof5_cresset>
0

>  <Confs_cresset>
0

>  <Poses_cresset>
0

$$$$
predicted (64)
  xed2sdf           3D
 
 65 70  0  0  1  0  0  0  0  0999 V2000
   13.6230   -2.4000   23.0150 Cl  0  0  0  0  0  0  0  0  0  0  0  0
   10.1550    3.3660   23.8550 O   0  0  0  0  0  0  0  0  0  0  0  0
    8.5200    1.1820   21.5220 O   0  0  0  0  0  0  0  0  0  0  0  0
    6.0270   -0.2760   18.0320 N   0  0  0  0  0  0  0  0  0  0  0  0
    4.8700    7.0750   22.2550 O   0  0  0  0  0  0  0  0  0  0  0  0
    9.7730    2.2150   23.9940 C   0  0  0  0  0  0  0  0  0  0  0  0
    8.1560    0.1430   22.0340 C   0  0  0  0  0  0  0  0  0  0  0  0
    6.7460   -0.6280   19.1140 C   0  0  0  0  0  0  0  0  0  0  0  0
   13.0040    0.2240   23.4900 C   0  0  0  0  0  0  0  0  0  0  0  0
   12.1020    1.2600   23.7690 C   0  0  0  0  0  0  0  0  0  0  0  0
   11.1400   -1.3070   23.2570 C   0  0  0  0  0  0  0  0  0  0  0  0
    2.7420    1.8130   20.9230 C   0  0  0  0  0  0  0  0  0  0  0  0
    3.4110    1.3450   22.0600 C   0  0  0  0  0  0  0  0  0  0  0  0
   12.5170   -1.0650   23.2680 C   0  0  0  0  0  0  0  0  0  0  0  0
   10.7090    1.0430   23.7410 C   0  0  0  0  0  0  0  0  0  0  0  0
   10.2100   -0.2510   23.4520 C   0  0  0  0  0  0  0  0  0  0  0  0
    4.8960    0.4300   18.2260 C   0  0  0  0  0  0  0  0  0  0  0  0
    3.2490    1.5440   19.6440 C   0  0  0  0  0  0  0  0  0  0  0  0
    4.6170    0.6390   21.9220 C   0  0  0  0  0  0  0  0  0  0  0  0
    6.3460   -0.3320   20.4250 C   0  0  0  0  0  0  0  0  0  0  0  0
    4.4220    0.7840   19.5010 C   0  0  0  0  0  0  0  0  0  0  0  0
    5.1340    0.3610   20.6360 C   0  0  0  0  0  0  0  0  0  0  0  0
    7.2000   -0.6770   21.4950 N   0  0  0  0  0  0  0  0  0  0  0  0
    8.4600    1.9010   24.3600 N   0  0  0  0  0  0  0  0  0  0  0  0
    3.9430    6.0190   22.5900 C   0  0  0  0  0  0  0  0  0  0  0  0
    5.9010    7.2210   23.2510 C   0  0  0  0  0  0  0  0  0  0  0  0
    7.4630    2.9850   24.5960 C   0  0  0  0  0  0  0  0  0  0  0  0
    7.7190   -2.5670   24.5910 C   0  0  0  0  0  0  0  0  0  0  0  0
    7.0090   -1.8860   22.2570 C   0  0  0  0  0  0  0  0  0  0  0  0
    8.0260    0.4780   24.4810 C   0  0  0  0  0  0  0  0  0  0  0  0
    4.7030    4.6540   22.6900 C   0  0  0  0  0  0  0  0  0  0  0  0
    6.7770    5.9380   23.2120 C   0  0  0  0  0  0  0  0  0  0  0  0
    6.8100    3.4790   23.2800 C   0  0  0  0  0  0  0  0  0  0  0  0
    8.1420   -1.8870   23.2830 C   0  0  0  0  0  0  0  0  0  0  0  0
    8.6750   -0.4090   23.3640 C   0  0  0  0  0  0  0  0  0  0  0  0
    5.9780    4.7080   23.4650 N   0  0  0  0  0  0  0  0  0  0  0  0
    7.6800   -1.1560   18.9250 H   0  0  0  0  0  0  0  0  0  0  0  0
   14.0760    0.4000   23.4800 H   0  0  0  0  0  0  0  0  0  0  0  0
   12.5020    2.2430   23.9890 H   0  0  0  0  0  0  0  0  0  0  0  0
   10.8330   -2.3360   23.1080 H   0  0  0  0  0  0  0  0  0  0  0  0
    1.8270    2.3900   21.0330 H   0  0  0  0  0  0  0  0  0  0  0  0
    2.9910    1.5220   23.0490 H   0  0  0  0  0  0  0  0  0  0  0  0
    4.3600    0.7110   17.3280 H   0  0  0  0  0  0  0  0  0  0  0  0
    2.7300    1.9020   18.7660 H   0  0  0  0  0  0  0  0  0  0  0  0
    5.1240    0.3010   22.8180 H   0  0  0  0  0  0  0  0  0  0  0  0
    3.1790    5.9390   21.8080 H   0  0  0  0  0  0  0  0  0  0  0  0
    3.4330    6.2590   23.5320 H   0  0  0  0  0  0  0  0  0  0  0  0
    5.4450    7.3500   24.2430 H   0  0  0  0  0  0  0  0  0  0  0  0
    6.5170    8.1040   23.0360 H   0  0  0  0  0  0  0  0  0  0  0  0
    7.9690    3.8300   25.0810 H   0  0  0  0  0  0  0  0  0  0  0  0
    6.6810    2.6290   25.2780 H   0  0  0  0  0  0  0  0  0  0  0  0
    6.7690   -2.1520   24.9590 H   0  0  0  0  0  0  0  0  0  0  0  0
    8.4980   -2.4500   25.3530 H   0  0  0  0  0  0  0  0  0  0  0  0
    7.5770   -3.6410   24.4010 H   0  0  0  0  0  0  0  0  0  0  0  0
    6.0240   -1.8710   22.7360 H   0  0  0  0  0  0  0  0  0  0  0  0
    7.0880   -2.7550   21.5990 H   0  0  0  0  0  0  0  0  0  0  0  0
    6.9330    0.4200   24.4310 H   0  0  0  0  0  0  0  0  0  0  0  0
    8.3380    0.1030   25.4640 H   0  0  0  0  0  0  0  0  0  0  0  0
    4.0330    3.9250   23.1650 H   0  0  0  0  0  0  0  0  0  0  0  0
    4.9030    4.2980   21.6730 H   0  0  0  0  0  0  0  0  0  0  0  0
    7.5740    6.0250   23.9610 H   0  0  0  0  0  0  0  0  0  0  0  0
    7.2590    5.8770   22.2240 H   0  0  0  0  0  0  0  0  0  0  0  0
    7.6250    3.6910   22.5730 H   0  0  0  0  0  0  0  0  0  0  0  0
    6.2180    2.6670   22.8410 H   0  0  0  0  0  0  0  0  0  0  0  0
    8.8920   -2.5120   22.8000 H   0  0  0  0  0  0  0  0  0  0  0  0
  6  2  2  0
  7  3  2  0
  8  4  2  0
 10  9  1  0
 13 12  1  0
 14  1  1  0
 14  9  2  0
 14 11  1  0
 15  6  1  0
 15 10  2  0
 16 11  2  0
 16 15  1  0
 17  4  1  0
 18 12  2  0
 19 13  2  0
 20  8  1  0
 21 17  2  0
 21 18  1  0
 22 19  1  0
 22 20  2  0
 22 21  1  0
 23  7  1  0
 23 20  1  0
 24  6  1  0
 25  5  1  0
 26  5  1  0
 27 24  1  0
 29 23  1  0
 30 24  1  0
 31 25  1  0
 32 26  1  0
 33 27  1  0
 34 28  1  0
 34 29  1  0
 35  7  1  0
 35 16  1  0
 35 30  1  0
 35 34  1  0
 36 31  1  0
 36 32  1  0
 36 33  1  0
  8 37  1  0
  9 38  1  0
 10 39  1  0
 11 40  1  0
 12 41  1  0
 13 42  1  0
 17 43  1  0
 18 44  1  0
 19 45  1  0
 25 46  1  0
 25 47  1  0
 26 48  1  0
 26 49  1  0
 27 50  1  0
 27 51  1  0
 28 52  1  0
 28 53  1  0
 28 54  1  0
 29 55  1  0
 29 56  1  0
 30 57  1  0
 30 58  1  0
 31 59  1  0
 31 60  1  0
 32 61  1  0
 32 62  1  0
 33 63  1  0
 33 64  1  0
 34 65  1  0
M  END
>  <Favorite_cresset>
false

>  <Protein_cresset>
sars_P

>  <MW_cresset>
505.0

>  <#Atoms_cresset>
36

>  <SlogP_cresset>
3.6

>  <TPSA_cresset>
66.0

>  <Flexibility_cresset>
4.8

>  <HBA_cresset>
7

>  <HBD_cresset>
0

>  <Rof5_cresset>
1

>  <Confs_cresset>
0

>  <Poses_cresset>
0

$$$$
predicted (65)
  xed2sdf           3D
 
 60 65  0  0  1  0  0  0  0  0999 V2000
  -13.9470   -3.4870  -22.4040 Cl  0  0  0  0  0  0  0  0  0  0  0  0
  -10.1180    1.9100  -24.2970 O   0  0  0  0  0  0  0  0  0  0  0  0
   -5.7160   -0.8790  -25.1410 O   0  0  0  0  0  0  0  0  0  0  0  0
   -8.3910    0.0580  -21.5650 O   0  0  0  0  0  0  0  0  0  0  0  0
   -6.1460   -0.7490  -18.0080 N   0  0  0  0  0  0  0  0  0  0  0  0
   -9.9990    0.7120  -24.1130 C   0  0  0  0  0  0  0  0  0  0  0  0
   -6.6750   -0.3060  -25.6230 C   0  0  0  0  0  0  0  0  0  0  0  0
   -8.1000   -1.0640  -21.9390 C   0  0  0  0  0  0  0  0  0  0  0  0
  -13.3400   -0.9930  -23.0680 C   0  0  0  0  0  0  0  0  0  0  0  0
  -12.3690    0.1550  -23.3500 C   0  0  0  0  0  0  0  0  0  0  0  0
  -12.6560   -2.2720  -22.5600 C   0  0  0  0  0  0  0  0  0  0  0  0
  -10.8560   -0.1280  -23.1550 C   0  0  0  0  0  0  0  0  0  0  0  0
   -8.0150   -4.2190  -24.0850 C   0  0  0  0  0  0  0  0  0  0  0  0
   -8.2320   -3.3550  -22.7940 C   0  0  0  0  0  0  0  0  0  0  0  0
   -6.7190   -1.3640  -19.0610 C   0  0  0  0  0  0  0  0  0  0  0  0
   -2.8340    1.1480  -20.9970 C   0  0  0  0  0  0  0  0  0  0  0  0
   -3.4620    0.5260  -22.0900 C   0  0  0  0  0  0  0  0  0  0  0  0
   -5.0510   -0.0020  -18.2300 C   0  0  0  0  0  0  0  0  0  0  0  0
   -3.3510    0.9730  -19.7020 C   0  0  0  0  0  0  0  0  0  0  0  0
   -4.5830   -0.2870  -21.8910 C   0  0  0  0  0  0  0  0  0  0  0  0
   -6.2380   -1.2610  -20.3700 C   0  0  0  0  0  0  0  0  0  0  0  0
   -4.4840    0.1640  -19.5040 C   0  0  0  0  0  0  0  0  0  0  0  0
   -5.0960   -0.4760  -20.6010 C   0  0  0  0  0  0  0  0  0  0  0  0
   -6.9520   -0.3480  -26.9720 N   0  0  0  0  0  0  0  0  0  0  0  0
   -7.0360   -1.7570  -21.4350 N   0  0  0  0  0  0  0  0  0  0  0  0
   -9.0100   -0.0590  -24.6740 N   0  0  0  0  0  0  0  0  0  0  0  0
   -6.1020   -1.0700  -27.9240 C   0  0  0  0  0  0  0  0  0  0  0  0
   -7.6470    0.5250  -24.7810 C   0  0  0  0  0  0  0  0  0  0  0  0
   -6.8870   -3.0750  -22.0530 C   0  0  0  0  0  0  0  0  0  0  0  0
  -11.3970   -2.6810  -23.3880 C   0  0  0  0  0  0  0  0  0  0  0  0
   -8.8470   -1.9360  -22.9360 C   0  0  0  0  0  0  0  0  0  0  0  0
   -9.1850   -1.4450  -24.3260 C   0  0  0  0  0  0  0  0  0  0  0  0
  -10.3030   -1.5760  -23.3100 C   0  0  0  0  0  0  0  0  0  0  0  0
   -6.9930   -3.7460  -24.8410 F   0  0  0  0  0  0  0  0  0  0  0  0
  -13.8900   -1.2190  -23.9850 H   0  0  0  0  0  0  0  0  0  0  0  0
  -14.1240   -0.6570  -22.3830 H   0  0  0  0  0  0  0  0  0  0  0  0
  -12.5370    0.4680  -24.3710 H   0  0  0  0  0  0  0  0  0  0  0  0
  -12.6470    1.0250  -22.7430 H   0  0  0  0  0  0  0  0  0  0  0  0
  -12.3030   -2.1580  -21.5450 H   0  0  0  0  0  0  0  0  0  0  0  0
  -10.6200    0.2210  -22.1580 H   0  0  0  0  0  0  0  0  0  0  0  0
   -8.9100   -4.2830  -24.7190 H   0  0  0  0  0  0  0  0  0  0  0  0
   -7.7560   -5.2400  -23.7740 H   0  0  0  0  0  0  0  0  0  0  0  0
   -8.8660   -3.9420  -22.1160 H   0  0  0  0  0  0  0  0  0  0  0  0
   -7.6350   -1.9140  -18.8720 H   0  0  0  0  0  0  0  0  0  0  0  0
   -1.9570    1.7720  -21.1530 H   0  0  0  0  0  0  0  0  0  0  0  0
   -3.0830    0.6710  -23.0960 H   0  0  0  0  0  0  0  0  0  0  0  0
   -4.6310    0.5090  -17.3680 H   0  0  0  0  0  0  0  0  0  0  0  0
   -2.8720    1.4670  -18.8600 H   0  0  0  0  0  0  0  0  0  0  0  0
   -5.0560   -0.7690  -22.7370 H   0  0  0  0  0  0  0  0  0  0  0  0
   -7.7480    0.1730  -27.3120 H   0  0  0  0  0  0  0  0  0  0  0  0
   -5.0470   -0.8470  -27.7210 H   0  0  0  0  0  0  0  0  0  0  0  0
   -6.3430   -0.7770  -28.9520 H   0  0  0  0  0  0  0  0  0  0  0  0
   -6.2650   -2.1460  -27.8040 H   0  0  0  0  0  0  0  0  0  0  0  0
   -7.2210    0.6610  -23.7790 H   0  0  0  0  0  0  0  0  0  0  0  0
   -7.7280    1.5160  -25.2430 H   0  0  0  0  0  0  0  0  0  0  0  0
   -6.0510   -3.0160  -22.7660 H   0  0  0  0  0  0  0  0  0  0  0  0
   -6.6910   -3.8480  -21.3030 H   0  0  0  0  0  0  0  0  0  0  0  0
  -11.6420   -2.8120  -24.4430 H   0  0  0  0  0  0  0  0  0  0  0  0
  -11.0480   -3.6610  -23.0320 H   0  0  0  0  0  0  0  0  0  0  0  0
   -9.2520   -2.1280  -25.1720 H   0  0  0  0  0  0  0  0  0  0  0  0
  6  2  2  0
  7  3  2  0
  8  4  2  0
 10  9  1  0
 11  1  1  0
 11  9  1  0
 12  6  1  0
 12 10  1  0
 14 13  1  0
 15  5  2  0
 17 16  1  0
 18  5  1  0
 19 16  2  0
 20 17  2  0
 21 15  1  0
 22 18  2  0
 22 19  1  0
 23 20  1  0
 23 21  2  0
 23 22  1  0
 24  7  1  0
 25  8  1  0
 25 21  1  0
 26  6  1  0
 27 24  1  0
 28  7  1  0
 28 26  1  0
 29 14  1  0
 29 25  1  0
 30 11  1  0
 31  8  1  0
 31 14  1  0
 32 26  1  0
 32 31  1  0
 33 12  1  0
 33 30  1  0
 33 31  1  0
 33 32  1  0
 34 13  1  0
  9 35  1  0
  9 36  1  0
 10 37  1  0
 10 38  1  0
 11 39  1  0
 12 40  1  0
 13 41  1  0
 13 42  1  0
 14 43  1  0
 15 44  1  0
 16 45  1  0
 17 46  1  0
 18 47  1  0
 19 48  1  0
 20 49  1  0
 24 50  1  0
 27 51  1  0
 27 52  1  0
 27 53  1  0
 28 54  1  0
 28 55  1  0
 29 56  1  0
 29 57  1  0
 30 58  1  0
 30 59  1  0
 32 60  1  0
M  END
>  <Favorite_cresset>
false

>  <Protein_cresset>
sars_P

>  <MW_cresset>
485.0

>  <#Atoms_cresset>
34

>  <SlogP_cresset>
2.5

>  <TPSA_cresset>
82.6

>  <Flexibility_cresset>
4.8

>  <HBA_cresset>
7

>  <HBD_cresset>
1

>  <Rof5_cresset>
0

>  <Confs_cresset>
0

>  <Poses_cresset>
0

$$$$
predicted (66)
  xed2sdf           3D
 
 47 50  0  0  1  0  0  0  0  0999 V2000
    7.9240    0.6340   21.7340 O   0  0  0  0  0  0  0  0  0  0  0  0
    5.9850   -0.1640   17.8530 N   0  0  0  0  0  0  0  0  0  0  0  0
    7.7960   -0.5320   22.0600 C   0  0  0  0  0  0  0  0  0  0  0  0
    6.5840   -0.8030   18.8740 C   0  0  0  0  0  0  0  0  0  0  0  0
    2.6960    1.6270   20.9480 C   0  0  0  0  0  0  0  0  0  0  0  0
    3.3560    1.0130   22.0230 C   0  0  0  0  0  0  0  0  0  0  0  0
    4.8750    0.5540   18.1180 C   0  0  0  0  0  0  0  0  0  0  0  0
    3.1860    1.4590   19.6430 C   0  0  0  0  0  0  0  0  0  0  0  0
    4.4800    0.2090   21.7910 C   0  0  0  0  0  0  0  0  0  0  0  0
    6.1160   -0.7540   20.1980 C   0  0  0  0  0  0  0  0  0  0  0  0
    4.3320    0.6810   19.4090 C   0  0  0  0  0  0  0  0  0  0  0  0
    4.9730    0.0260   20.4820 C   0  0  0  0  0  0  0  0  0  0  0  0
    8.3250   -1.0300   23.2380 N   0  0  0  0  0  0  0  0  0  0  0  0
    6.9190   -1.4970   21.2610 C   0  0  0  0  0  0  0  0  0  0  0  0
    8.4790   -0.1450   24.3930 C   0  0  0  0  0  0  0  0  0  0  0  0
   13.5080   -0.9890   24.0470 C   0  0  0  0  0  0  0  0  0  0  0  0
   13.2570   -2.3580   23.3350 C   0  0  0  0  0  0  0  0  0  0  0  0
    9.2590   -2.1700   23.2350 C   0  0  0  0  0  0  0  0  0  0  0  0
    9.8860    0.4530   24.4080 C   0  0  0  0  0  0  0  0  0  0  0  0
   12.3800    0.0640   23.9720 C   0  0  0  0  0  0  0  0  0  0  0  0
   11.7660   -2.7910   23.1500 C   0  0  0  0  0  0  0  0  0  0  0  0
   11.0250   -0.5960   24.2720 C   0  0  0  0  0  0  0  0  0  0  0  0
   10.7220   -1.6410   23.1570 C   0  0  0  0  0  0  0  0  0  0  0  0
   13.8750   -2.3550   22.1380 F   0  0  0  0  0  0  0  0  0  0  0  0
   13.8930   -3.3190   24.0400 F   0  0  0  0  0  0  0  0  0  0  0  0
    7.4860   -1.3670   18.6390 H   0  0  0  0  0  0  0  0  0  0  0  0
    1.8290    2.2540   21.1270 H   0  0  0  0  0  0  0  0  0  0  0  0
    3.0010    1.1730   23.0380 H   0  0  0  0  0  0  0  0  0  0  0  0
    4.4500    1.0850   17.2720 H   0  0  0  0  0  0  0  0  0  0  0  0
    2.6790    1.9370   18.8150 H   0  0  0  0  0  0  0  0  0  0  0  0
    4.9750   -0.2530   22.6390 H   0  0  0  0  0  0  0  0  0  0  0  0
    7.5550   -2.2500   20.7880 H   0  0  0  0  0  0  0  0  0  0  0  0
    6.2560   -2.0400   21.9420 H   0  0  0  0  0  0  0  0  0  0  0  0
    7.7280    0.6560   24.3480 H   0  0  0  0  0  0  0  0  0  0  0  0
    8.3060   -0.7170   25.3120 H   0  0  0  0  0  0  0  0  0  0  0  0
   14.4420   -0.5500   23.6790 H   0  0  0  0  0  0  0  0  0  0  0  0
   13.6650   -1.2080   25.1080 H   0  0  0  0  0  0  0  0  0  0  0  0
    9.1020   -2.7560   24.1480 H   0  0  0  0  0  0  0  0  0  0  0  0
    9.0650   -2.8350   22.3820 H   0  0  0  0  0  0  0  0  0  0  0  0
    9.9440    1.2040   23.6150 H   0  0  0  0  0  0  0  0  0  0  0  0
    9.9670    0.9620   25.3570 H   0  0  0  0  0  0  0  0  0  0  0  0
   12.3390    0.5510   22.9900 H   0  0  0  0  0  0  0  0  0  0  0  0
   12.5880    0.8550   24.7010 H   0  0  0  0  0  0  0  0  0  0  0  0
   11.4990   -3.4860   23.9590 H   0  0  0  0  0  0  0  0  0  0  0  0
   11.6860   -3.3700   22.2180 H   0  0  0  0  0  0  0  0  0  0  0  0
   11.1340   -1.0880   25.2450 H   0  0  0  0  0  0  0  0  0  0  0  0
   10.7960   -1.1120   22.2010 H   0  0  0  0  0  0  0  0  0  0  0  0
  3  1  2  0
  4  2  2  0
  6  5  1  0
  7  2  1  0
  8  5  2  0
  9  6  2  0
 10  4  1  0
 11  7  2  0
 11  8  1  0
 12  9  1  0
 12 10  2  0
 12 11  1  0
 13  3  1  0
 14  3  1  0
 14 10  1  0
 15 13  1  0
 17 16  1  0
 18 13  1  0
 19 15  1  0
 20 16  1  0
 21 17  1  0
 22 19  1  0
 22 20  1  0
 23 18  1  0
 23 21  1  0
 23 22  1  0
 24 17  1  0
 25 17  1  0
  4 26  1  0
  5 27  1  0
  6 28  1  0
  7 29  1  0
  8 30  1  0
  9 31  1  0
 14 32  1  0
 14 33  1  0
 15 34  1  0
 15 35  1  0
 16 36  1  0
 16 37  1  0
 18 38  1  0
 18 39  1  0
 19 40  1  0
 19 41  1  0
 20 42  1  0
 20 43  1  0
 21 44  1  0
 21 45  1  0
 22 46  1  0
 23 47  1  0
M  END
>  <Favorite_cresset>
false

>  <Protein_cresset>
sars_P

>  <MW_cresset>
344.4

>  <#Atoms_cresset>
25

>  <SlogP_cresset>
4.1

>  <TPSA_cresset>
33.2

>  <Flexibility_cresset>
4.0

>  <HBA_cresset>
3

>  <HBD_cresset>
0

>  <Rof5_cresset>
0

>  <Confs_cresset>
0

>  <Poses_cresset>
0

$$$$
predicted (67)
  xed2sdf           3D
 
 66 71  0  0  1  0  0  0  0  0999 V2000
   13.9250   -2.0820   23.3220 Cl  0  0  0  0  0  0  0  0  0  0  0  0
   10.2470    3.5410   23.8270 O   0  0  0  0  0  0  0  0  0  0  0  0
    8.5100    1.4180   21.5160 O   0  0  0  0  0  0  0  0  0  0  0  0
    6.0480   -0.3310   17.9880 N   0  0  0  0  0  0  0  0  0  0  0  0
    7.4060   -2.3670   25.0430 O   0  0  0  0  0  0  0  0  0  0  0  0
    9.9500    2.3620   23.9180 C   0  0  0  0  0  0  0  0  0  0  0  0
    8.2620    0.3260   21.9740 C   0  0  0  0  0  0  0  0  0  0  0  0
    6.7710   -0.6490   19.0760 C   0  0  0  0  0  0  0  0  0  0  0  0
   13.2330    0.5540   23.5460 C   0  0  0  0  0  0  0  0  0  0  0  0
   12.2980    1.5810   23.6840 C   0  0  0  0  0  0  0  0  0  0  0  0
   11.4330   -1.0440   23.1980 C   0  0  0  0  0  0  0  0  0  0  0  0
    2.8550    1.9550   20.8530 C   0  0  0  0  0  0  0  0  0  0  0  0
    3.6240    1.6550   21.9880 C   0  0  0  0  0  0  0  0  0  0  0  0
   12.7940   -0.7570   23.3350 C   0  0  0  0  0  0  0  0  0  0  0  0
   10.9290    1.2850   23.5920 C   0  0  0  0  0  0  0  0  0  0  0  0
   10.4720   -0.0200   23.2890 C   0  0  0  0  0  0  0  0  0  0  0  0
    4.9360    0.4110   18.1690 C   0  0  0  0  0  0  0  0  0  0  0  0
    3.2810    1.5430   19.5790 C   0  0  0  0  0  0  0  0  0  0  0  0
    4.8280    0.9410   21.8470 C   0  0  0  0  0  0  0  0  0  0  0  0
    6.4460   -0.2140   20.3720 C   0  0  0  0  0  0  0  0  0  0  0  0
    4.4860    0.8300   19.4330 C   0  0  0  0  0  0  0  0  0  0  0  0
    5.2630    0.5270   20.5680 C   0  0  0  0  0  0  0  0  0  0  0  0
    7.3130   -0.5150   21.4450 N   0  0  0  0  0  0  0  0  0  0  0  0
    8.6990    1.9220   24.3450 N   0  0  0  0  0  0  0  0  0  0  0  0
    7.0270   -3.3410   26.0340 C   0  0  0  0  0  0  0  0  0  0  0  0
    7.6600    2.9100   24.6570 C   0  0  0  0  0  0  0  0  0  0  0  0
    4.9620   -1.7300   26.5010 C   0  0  0  0  0  0  0  0  0  0  0  0
    6.1260   -1.2550   27.3410 C   0  0  0  0  0  0  0  0  0  0  0  0
    5.9970   -2.7200   26.9890 C   0  0  0  0  0  0  0  0  0  0  0  0
    8.4610   -2.7700   24.1680 C   0  0  0  0  0  0  0  0  0  0  0  0
    7.2080   -1.7570   22.1670 C   0  0  0  0  0  0  0  0  0  0  0  0
    8.3430    0.4720   24.4140 C   0  0  0  0  0  0  0  0  0  0  0  0
    6.2080    5.5420   22.3690 C   0  0  0  0  0  0  0  0  0  0  0  0
    7.3300    3.7930   23.4740 C   0  0  0  0  0  0  0  0  0  0  0  0
    8.5200   -1.7970   22.9720 C   0  0  0  0  0  0  0  0  0  0  0  0
    8.9470   -0.2860   23.2060 C   0  0  0  0  0  0  0  0  0  0  0  0
    6.4490    4.7220   23.5630 N   0  0  0  0  0  0  0  0  0  0  0  0
    5.6350   -3.6000   27.9750 F   0  0  0  0  0  0  0  0  0  0  0  0
    7.6650   -1.2450   18.9020 H   0  0  0  0  0  0  0  0  0  0  0  0
   14.2870    0.7870   23.6350 H   0  0  0  0  0  0  0  0  0  0  0  0
   12.6270    2.5930   23.9070 H   0  0  0  0  0  0  0  0  0  0  0  0
   11.1540   -2.0790   23.0540 H   0  0  0  0  0  0  0  0  0  0  0  0
    1.9220    2.4990   20.9730 H   0  0  0  0  0  0  0  0  0  0  0  0
    3.2840    1.9640   22.9750 H   0  0  0  0  0  0  0  0  0  0  0  0
    4.4000    0.6910   17.2700 H   0  0  0  0  0  0  0  0  0  0  0  0
    2.6580    1.7590   18.7150 H   0  0  0  0  0  0  0  0  0  0  0  0
    5.3930    0.6900   22.7380 H   0  0  0  0  0  0  0  0  0  0  0  0
    7.9090   -3.6480   26.6050 H   0  0  0  0  0  0  0  0  0  0  0  0
    6.6070   -4.2220   25.5360 H   0  0  0  0  0  0  0  0  0  0  0  0
    8.0390    3.5500   25.4630 H   0  0  0  0  0  0  0  0  0  0  0  0
    6.7560    2.4050   25.0090 H   0  0  0  0  0  0  0  0  0  0  0  0
    3.9800   -1.7540   26.9670 H   0  0  0  0  0  0  0  0  0  0  0  0
    4.9580   -1.4860   25.4390 H   0  0  0  0  0  0  0  0  0  0  0  0
    5.9530   -0.9810   28.3780 H   0  0  0  0  0  0  0  0  0  0  0  0
    6.9010   -0.6710   26.8460 H   0  0  0  0  0  0  0  0  0  0  0  0
    9.4180   -2.8040   24.7020 H   0  0  0  0  0  0  0  0  0  0  0  0
    8.2460   -3.7770   23.7870 H   0  0  0  0  0  0  0  0  0  0  0  0
    6.3330   -1.6800   22.8260 H   0  0  0  0  0  0  0  0  0  0  0  0
    7.1170   -2.6170   21.4830 H   0  0  0  0  0  0  0  0  0  0  0  0
    7.2580    0.3460   24.4300 H   0  0  0  0  0  0  0  0  0  0  0  0
    8.7450    0.0550   25.3440 H   0  0  0  0  0  0  0  0  0  0  0  0
    5.1270    5.5940   22.1940 H   0  0  0  0  0  0  0  0  0  0  0  0
    6.6890    5.1090   21.4810 H   0  0  0  0  0  0  0  0  0  0  0  0
    6.5910    6.5590   22.5290 H   0  0  0  0  0  0  0  0  0  0  0  0
    7.9330    3.6870   22.5740 H   0  0  0  0  0  0  0  0  0  0  0  0
    9.2320   -2.2280   22.2600 H   0  0  0  0  0  0  0  0  0  0  0  0
  6  2  2  0
  7  3  2  0
  8  4  2  0
 10  9  1  0
 13 12  1  0
 14  1  1  0
 14  9  2  0
 14 11  1  0
 15  6  1  0
 15 10  2  0
 16 11  2  0
 16 15  1  0
 17  4  1  0
 18 12  2  0
 19 13  2  0
 20  8  1  0
 21 17  2  0
 21 18  1  0
 22 19  1  0
 22 20  2  0
 22 21  1  0
 23  7  1  0
 23 20  1  0
 24  6  1  0
 25  5  1  0
 26 24  1  0
 28 27  1  0
 29 25  1  0
 29 27  1  0
 29 28  1  0
 30  5  1  0
 31 23  1  0
 32 24  1  0
 34 26  1  0
 35 30  1  0
 35 31  1  0
 36  7  1  0
 36 16  1  0
 36 32  1  0
 36 35  1  0
 37 33  1  0
 37 34  2  0
 38 29  1  0
  8 39  1  0
  9 40  1  0
 10 41  1  0
 11 42  1  0
 12 43  1  0
 13 44  1  0
 17 45  1  0
 18 46  1  0
 19 47  1  0
 25 48  1  0
 25 49  1  0
 26 50  1  0
 26 51  1  0
 27 52  1  0
 27 53  1  0
 28 54  1  0
 28 55  1  0
 30 56  1  0
 30 57  1  0
 31 58  1  0
 31 59  1  0
 32 60  1  0
 32 61  1  0
 33 62  1  0
 33 63  1  0
 33 64  1  0
 34 65  1  0
 35 66  1  0
M  END
>  <Favorite_cresset>
false

>  <Protein_cresset>
sars_P

>  <MW_cresset>
535.0

>  <#Atoms_cresset>
38

>  <SlogP_cresset>
4.5

>  <TPSA_cresset>
75.1

>  <Flexibility_cresset>
7.1

>  <HBA_cresset>
7

>  <HBD_cresset>
0

>  <Rof5_cresset>
1

>  <Confs_cresset>
0

>  <Poses_cresset>
0

$$$$
predicted (68)
  xed2sdf           3D
 
 57 62  0  0  1  0  0  0  0  0999 V2000
   10.3400    3.3560   23.7860 O   0  0  0  0  0  0  0  0  0  0  0  0
    8.4840    1.3920   21.5010 O   0  0  0  0  0  0  0  0  0  0  0  0
    5.7910    3.1510   23.7310 N   0  0  0  0  0  0  0  0  0  0  0  0
    7.4190    4.7340   23.6580 N   0  0  0  0  0  0  0  0  0  0  0  0
    6.1580   -0.1730   17.8190 N   0  0  0  0  0  0  0  0  0  0  0  0
    5.4050    4.1670   22.8310 O   0  0  0  0  0  0  0  0  0  0  0  0
   10.0220    2.1810   23.8570 C   0  0  0  0  0  0  0  0  0  0  0  0
    8.2850    0.2560   21.8670 C   0  0  0  0  0  0  0  0  0  0  0  0
    6.9850    3.5360   24.1680 C   0  0  0  0  0  0  0  0  0  0  0  0
    6.4310    5.0590   22.8630 C   0  0  0  0  0  0  0  0  0  0  0  0
    6.8740   -0.5300   18.9020 C   0  0  0  0  0  0  0  0  0  0  0  0
   13.2810    0.2600   23.3520 C   0  0  0  0  0  0  0  0  0  0  0  0
   12.3670    1.2990   23.5620 C   0  0  0  0  0  0  0  0  0  0  0  0
   11.4380   -1.2790   22.9850 C   0  0  0  0  0  0  0  0  0  0  0  0
    2.7700    1.7210   20.7280 C   0  0  0  0  0  0  0  0  0  0  0  0
    3.5240    1.3710   21.8570 C   0  0  0  0  0  0  0  0  0  0  0  0
   12.8160   -1.0270   23.0840 C   0  0  0  0  0  0  0  0  0  0  0  0
   10.9780    1.0650   23.4780 C   0  0  0  0  0  0  0  0  0  0  0  0
   10.4950   -0.2250   23.1450 C   0  0  0  0  0  0  0  0  0  0  0  0
    5.0070    0.4950   18.0140 C   0  0  0  0  0  0  0  0  0  0  0  0
    3.2650    1.4420   19.4470 C   0  0  0  0  0  0  0  0  0  0  0  0
    4.7690    0.7380   21.7100 C   0  0  0  0  0  0  0  0  0  0  0  0
    6.4910   -0.2120   20.2130 C   0  0  0  0  0  0  0  0  0  0  0  0
    4.5020    0.7970   19.2910 C   0  0  0  0  0  0  0  0  0  0  0  0
    5.2610    0.4420   20.4230 C   0  0  0  0  0  0  0  0  0  0  0  0
    7.3480   -0.5630   21.2820 N   0  0  0  0  0  0  0  0  0  0  0  0
    8.7770    1.7670   24.3490 N   0  0  0  0  0  0  0  0  0  0  0  0
    6.3820    6.3040   22.0150 C   0  0  0  0  0  0  0  0  0  0  0  0
    7.8890    2.7100   25.0770 C   0  0  0  0  0  0  0  0  0  0  0  0
    8.1620   -2.7150   24.1590 C   0  0  0  0  0  0  0  0  0  0  0  0
    7.2210   -1.8260   21.9630 C   0  0  0  0  0  0  0  0  0  0  0  0
    8.3650    0.3380   24.3160 C   0  0  0  0  0  0  0  0  0  0  0  0
    8.4480   -1.8960   22.8830 C   0  0  0  0  0  0  0  0  0  0  0  0
    8.9500   -0.4130   23.0820 C   0  0  0  0  0  0  0  0  0  0  0  0
   13.6990   -2.0390   22.9440 F   0  0  0  0  0  0  0  0  0  0  0  0
    7.8020   -1.0650   18.7150 H   0  0  0  0  0  0  0  0  0  0  0  0
   14.3480    0.4430   23.4300 H   0  0  0  0  0  0  0  0  0  0  0  0
   12.7420    2.2780   23.8380 H   0  0  0  0  0  0  0  0  0  0  0  0
   11.1430   -2.3050   22.8010 H   0  0  0  0  0  0  0  0  0  0  0  0
    1.8010    2.1990   20.8480 H   0  0  0  0  0  0  0  0  0  0  0  0
    3.1350    1.5800   22.8490 H   0  0  0  0  0  0  0  0  0  0  0  0
    4.4910    0.8170   17.1170 H   0  0  0  0  0  0  0  0  0  0  0  0
    2.6690    1.7000   18.5850 H   0  0  0  0  0  0  0  0  0  0  0  0
    5.3310    0.4630   22.5980 H   0  0  0  0  0  0  0  0  0  0  0  0
    5.3870    6.4580   21.5810 H   0  0  0  0  0  0  0  0  0  0  0  0
    7.1090    6.2330   21.2060 H   0  0  0  0  0  0  0  0  0  0  0  0
    6.6400    7.2060   22.5770 H   0  0  0  0  0  0  0  0  0  0  0  0
    7.3430    2.1490   25.8470 H   0  0  0  0  0  0  0  0  0  0  0  0
    8.5190    3.4170   25.6280 H   0  0  0  0  0  0  0  0  0  0  0  0
    7.1460   -2.5300   24.5290 H   0  0  0  0  0  0  0  0  0  0  0  0
    8.8670   -2.4800   24.9630 H   0  0  0  0  0  0  0  0  0  0  0  0
    8.2430   -3.7860   23.9350 H   0  0  0  0  0  0  0  0  0  0  0  0
    6.2950   -1.8070   22.5470 H   0  0  0  0  0  0  0  0  0  0  0  0
    7.2010   -2.6620   21.2500 H   0  0  0  0  0  0  0  0  0  0  0  0
    7.2680    0.2760   24.2950 H   0  0  0  0  0  0  0  0  0  0  0  0
    8.7530   -0.1310   25.2270 H   0  0  0  0  0  0  0  0  0  0  0  0
    9.1830   -2.4350   22.2790 H   0  0  0  0  0  0  0  0  0  0  0  0
  6  3  1  0
  7  1  2  0
  8  2  2  0
  9  3  2  0
  9  4  1  0
 10  4  2  0
 10  6  1  0
 11  5  2  0
 13 12  1  0
 16 15  1  0
 17 12  2  0
 17 14  1  0
 18  7  1  0
 18 13  2  0
 19 14  2  0
 19 18  1  0
 20  5  1  0
 21 15  2  0
 22 16  2  0
 23 11  1  0
 24 20  2  0
 24 21  1  0
 25 22  1  0
 25 23  2  0
 25 24  1  0
 26  8  1  0
 26 23  1  0
 27  7  1  0
 28 10  1  0
 29  9  1  0
 29 27  1  0
 31 26  1  0
 32 27  1  0
 33 30  1  0
 33 31  1  0
 34  8  1  0
 34 19  1  0
 34 32  1  0
 34 33  1  0
 35 17  1  0
 11 36  1  0
 12 37  1  0
 13 38  1  0
 14 39  1  0
 15 40  1  0
 16 41  1  0
 20 42  1  0
 21 43  1  0
 22 44  1  0
 28 45  1  0
 28 46  1  0
 28 47  1  0
 29 48  1  0
 29 49  1  0
 30 50  1  0
 30 51  1  0
 30 52  1  0
 31 53  1  0
 31 54  1  0
 32 55  1  0
 32 56  1  0
 33 57  1  0
M  END
>  <Favorite_cresset>
false

>  <Protein_cresset>
sars_P

>  <MW_cresset>
471.5

>  <#Atoms_cresset>
35

>  <SlogP_cresset>
3.3

>  <TPSA_cresset>
92.4

>  <Flexibility_cresset>
2.9

>  <HBA_cresset>
8

>  <HBD_cresset>
0

>  <Rof5_cresset>
0

>  <Confs_cresset>
0

>  <Poses_cresset>
0

$$$$
predicted (69)
  xed2sdf           3D
 
 64 68  0  0  0  0  0  0  0  0999 V2000
   13.7080   -3.0930   21.9880 Cl  0  0  0  0  0  0  0  0  0  0  0  0
    8.4220    1.5480   22.2790 O   0  0  0  0  0  0  0  0  0  0  0  0
    5.4930   -5.6320   20.8620 O   0  0  0  0  0  0  0  0  0  0  0  0
    5.4780    0.2680   18.6430 N   0  0  0  0  0  0  0  0  0  0  0  0
    8.0440    0.4400   22.6240 C   0  0  0  0  0  0  0  0  0  0  0  0
    6.0350   -4.6950   21.4350 C   0  0  0  0  0  0  0  0  0  0  0  0
    6.2660    0.0700   19.7070 C   0  0  0  0  0  0  0  0  0  0  0  0
   12.8030   -1.9480   25.7480 C   0  0  0  0  0  0  0  0  0  0  0  0
   13.4300   -2.5740   24.6580 C   0  0  0  0  0  0  0  0  0  0  0  0
    7.5540   -1.6640   25.2370 C   0  0  0  0  0  0  0  0  0  0  0  0
    8.0800   -2.7910   23.1560 C   0  0  0  0  0  0  0  0  0  0  0  0
   11.6750   -1.1380   25.5370 C   0  0  0  0  0  0  0  0  0  0  0  0
   11.7770   -1.5780   23.1630 C   0  0  0  0  0  0  0  0  0  0  0  0
    6.7900   -2.7760   25.6410 C   0  0  0  0  0  0  0  0  0  0  0  0
    2.8590    1.9450   22.6540 C   0  0  0  0  0  0  0  0  0  0  0  0
    2.0440    2.1450   21.5300 C   0  0  0  0  0  0  0  0  0  0  0  0
   12.9160   -2.3760   23.3630 C   0  0  0  0  0  0  0  0  0  0  0  0
    8.2180   -1.6550   23.9930 C   0  0  0  0  0  0  0  0  0  0  0  0
    7.1770   -3.8310   23.4920 C   0  0  0  0  0  0  0  0  0  0  0  0
   11.1670   -0.9320   24.2480 C   0  0  0  0  0  0  0  0  0  0  0  0
    6.5670   -3.8510   24.7620 C   0  0  0  0  0  0  0  0  0  0  0  0
    4.2900    0.8560   18.8460 C   0  0  0  0  0  0  0  0  0  0  0  0
    4.1630    1.4310   22.5030 C   0  0  0  0  0  0  0  0  0  0  0  0
    2.5110    1.7820   20.2620 C   0  0  0  0  0  0  0  0  0  0  0  0
    5.9040    0.4460   21.0180 C   0  0  0  0  0  0  0  0  0  0  0  0
    3.8050    1.2410   20.1070 C   0  0  0  0  0  0  0  0  0  0  0  0
    4.6410    1.0620   21.2260 C   0  0  0  0  0  0  0  0  0  0  0  0
    8.7800   -0.4180   23.4810 N   0  0  0  0  0  0  0  0  0  0  0  0
    6.8270   -4.8740   22.5800 N   0  0  0  0  0  0  0  0  0  0  0  0
    6.7160   -0.1520   22.1550 C   0  0  0  0  0  0  0  0  0  0  0  0
   10.0530    0.0920   24.0480 C   0  0  0  0  0  0  0  0  0  0  0  0
    5.2310   -3.0900   19.5350 C   0  0  0  0  0  0  0  0  0  0  0  0
    5.8930   -3.2520   20.9180 C   0  0  0  0  0  0  0  0  0  0  0  0
    5.6280   -5.0050   25.1680 C   0  0  0  0  0  0  0  0  0  0  0  0
    6.8100   -6.1900   23.2230 C   0  0  0  0  0  0  0  0  0  0  0  0
    5.6090   -6.2180   24.1860 C   0  0  0  0  0  0  0  0  0  0  0  0
    1.6990    1.9430   19.1960 F   0  0  0  0  0  0  0  0  0  0  0  0
    7.1970   -0.4600   19.5000 H   0  0  0  0  0  0  0  0  0  0  0  0
   13.1910   -2.0800   26.7550 H   0  0  0  0  0  0  0  0  0  0  0  0
   14.2880   -3.2220   24.8210 H   0  0  0  0  0  0  0  0  0  0  0  0
    7.5700   -0.7770   25.8630 H   0  0  0  0  0  0  0  0  0  0  0  0
    8.5630   -2.7870   22.1830 H   0  0  0  0  0  0  0  0  0  0  0  0
   11.1750   -0.6580   26.3710 H   0  0  0  0  0  0  0  0  0  0  0  0
   11.3740   -1.4330   22.1700 H   0  0  0  0  0  0  0  0  0  0  0  0
    6.2980   -2.7670   26.6100 H   0  0  0  0  0  0  0  0  0  0  0  0
    2.4720    2.1760   23.6430 H   0  0  0  0  0  0  0  0  0  0  0  0
    1.0510    2.5770   21.6330 H   0  0  0  0  0  0  0  0  0  0  0  0
    3.7090    1.0160   17.9570 H   0  0  0  0  0  0  0  0  0  0  0  0
    4.7920    1.3300   23.3800 H   0  0  0  0  0  0  0  0  0  0  0  0
    6.0870   -0.4100   23.0130 H   0  0  0  0  0  0  0  0  0  0  0  0
    7.0630   -1.0810   21.7390 H   0  0  0  0  0  0  0  0  0  0  0  0
    9.8300    0.5910   25.0000 H   0  0  0  0  0  0  0  0  0  0  0  0
   10.4550    0.8680   23.3870 H   0  0  0  0  0  0  0  0  0  0  0  0
    6.0070   -2.9260   18.7740 H   0  0  0  0  0  0  0  0  0  0  0  0
    4.6700   -3.9750   19.2380 H   0  0  0  0  0  0  0  0  0  0  0  0
    4.5520   -2.2280   19.5340 H   0  0  0  0  0  0  0  0  0  0  0  0
    5.3750   -2.6430   21.6720 H   0  0  0  0  0  0  0  0  0  0  0  0
    6.9030   -2.8600   20.7930 H   0  0  0  0  0  0  0  0  0  0  0  0
    4.6070   -4.6170   25.2550 H   0  0  0  0  0  0  0  0  0  0  0  0
    5.8980   -5.3710   26.1650 H   0  0  0  0  0  0  0  0  0  0  0  0
    7.7380   -6.3230   23.7960 H   0  0  0  0  0  0  0  0  0  0  0  0
    6.7430   -6.9870   22.4710 H   0  0  0  0  0  0  0  0  0  0  0  0
    4.6810   -6.1990   23.6000 H   0  0  0  0  0  0  0  0  0  0  0  0
    5.5900   -7.1620   24.7400 H   0  0  0  0  0  0  0  0  0  0  0  0
  5  2  2  0
  6  3  2  0
  7  4  2  0
  9  8  2  0
 12  8  1  0
 14 10  2  0
 16 15  1  0
 17  1  1  0
 17  9  1  0
 17 13  2  0
 18 10  1  0
 18 11  2  0
 19 11  1  0
 20 12  2  0
 20 13  1  0
 21 14  1  0
 21 19  2  0
 22  4  1  0
 23 15  2  0
 24 16  2  0
 25  7  1  0
 26 22  2  0
 26 24  1  0
 27 23  1  0
 27 25  2  0
 27 26  1  0
 28  5  1  0
 28 18  1  0
 29  6  1  0
 29 19  1  0
 30  5  1  0
 30 25  1  0
 31 20  1  0
 31 28  1  0
 33  6  1  0
 33 32  1  0
 34 21  1  0
 35 29  1  0
 36 34  1  0
 36 35  1  0
 37 24  1  0
  7 38  1  0
  8 39  1  0
  9 40  1  0
 10 41  1  0
 11 42  1  0
 12 43  1  0
 13 44  1  0
 14 45  1  0
 15 46  1  0
 16 47  1  0
 22 48  1  0
 23 49  1  0
 30 50  1  0
 30 51  1  0
 31 52  1  0
 31 53  1  0
 32 54  1  0
 32 55  1  0
 32 56  1  0
 33 57  1  0
 33 58  1  0
 34 59  1  0
 34 60  1  0
 35 61  1  0
 35 62  1  0
 36 63  1  0
 36 64  1  0
M  END
>  <Favorite_cresset>
false

>  <Protein_cresset>
sars_P

>  <MW_cresset>
516.0

>  <#Atoms_cresset>
37

>  <SlogP_cresset>
6.8

>  <TPSA_cresset>
53.5

>  <Flexibility_cresset>
6.2

>  <HBA_cresset>
5

>  <HBD_cresset>
0

>  <Rof5_cresset>
2

>  <Confs_cresset>
0

>  <Poses_cresset>
0

$$$$
predicted (70)
  xed2sdf           3D
 
 57 62  0  0  1  0  0  0  0  0999 V2000
   10.2470    3.2450   23.9920 O   0  0  0  0  0  0  0  0  0  0  0  0
    8.4070    1.4030   21.4850 O   0  0  0  0  0  0  0  0  0  0  0  0
    5.5480    1.6990   25.9830 N   0  0  0  0  0  0  0  0  0  0  0  0
    6.2290   -0.0450   17.6870 N   0  0  0  0  0  0  0  0  0  0  0  0
    5.2810    1.1980   27.1560 N   0  0  0  0  0  0  0  0  0  0  0  0
    7.4760    1.8160   27.1440 N   0  0  0  0  0  0  0  0  0  0  0  0
    9.9200    2.0670   23.9830 C   0  0  0  0  0  0  0  0  0  0  0  0
    8.2560    0.2320   21.7750 C   0  0  0  0  0  0  0  0  0  0  0  0
    6.8670    2.0700   26.0060 C   0  0  0  0  0  0  0  0  0  0  0  0
    6.9590   -0.4220   18.7520 C   0  0  0  0  0  0  0  0  0  0  0  0
   13.1960    0.1630   23.3120 C   0  0  0  0  0  0  0  0  0  0  0  0
   12.2850    1.1710   23.6740 C   0  0  0  0  0  0  0  0  0  0  0  0
   11.3390   -1.2760   22.7040 C   0  0  0  0  0  0  0  0  0  0  0  0
    2.8030    1.6500   20.6610 C   0  0  0  0  0  0  0  0  0  0  0  0
    3.5460    1.2330   21.7730 C   0  0  0  0  0  0  0  0  0  0  0  0
   12.7180   -1.0590   22.8290 C   0  0  0  0  0  0  0  0  0  0  0  0
   10.8910    0.9620   23.5770 C   0  0  0  0  0  0  0  0  0  0  0  0
   10.4040   -0.2780   23.0910 C   0  0  0  0  0  0  0  0  0  0  0  0
    5.0560    0.5760   17.8990 C   0  0  0  0  0  0  0  0  0  0  0  0
    3.3070    1.4470   19.3720 C   0  0  0  0  0  0  0  0  0  0  0  0
    4.7940    0.6240   21.5960 C   0  0  0  0  0  0  0  0  0  0  0  0
    6.5390   -0.2040   20.0700 C   0  0  0  0  0  0  0  0  0  0  0  0
    4.5400    0.8100   19.1850 C   0  0  0  0  0  0  0  0  0  0  0  0
    5.2940    0.4070   20.2990 C   0  0  0  0  0  0  0  0  0  0  0  0
    7.3710   -0.5920   21.1340 N   0  0  0  0  0  0  0  0  0  0  0  0
    8.6230    1.6560   24.3220 N   0  0  0  0  0  0  0  0  0  0  0  0
    6.4540    1.2700   27.8330 N   0  0  0  0  0  0  0  0  0  0  0  0
    7.5670    2.6020   24.7820 C   0  0  0  0  0  0  0  0  0  0  0  0
    6.5880    0.8270   29.2230 C   0  0  0  0  0  0  0  0  0  0  0  0
    8.1940   -2.7800   24.0680 C   0  0  0  0  0  0  0  0  0  0  0  0
    7.2000   -1.8720   21.8000 C   0  0  0  0  0  0  0  0  0  0  0  0
    8.1900    0.2410   24.1920 C   0  0  0  0  0  0  0  0  0  0  0  0
    8.4010   -1.9610   22.7620 C   0  0  0  0  0  0  0  0  0  0  0  0
    8.8750   -0.4700   22.9840 C   0  0  0  0  0  0  0  0  0  0  0  0
   13.5880   -1.9980   22.3900 F   0  0  0  0  0  0  0  0  0  0  0  0
    7.9300   -0.8690   18.5390 H   0  0  0  0  0  0  0  0  0  0  0  0
   14.2650    0.3540   23.3450 H   0  0  0  0  0  0  0  0  0  0  0  0
   12.6570    2.1260   24.0310 H   0  0  0  0  0  0  0  0  0  0  0  0
   11.0420   -2.2020   22.2270 H   0  0  0  0  0  0  0  0  0  0  0  0
    1.8380    2.1290   20.7940 H   0  0  0  0  0  0  0  0  0  0  0  0
    3.1550    1.3850   22.7740 H   0  0  0  0  0  0  0  0  0  0  0  0
    4.5540    0.9510   17.0140 H   0  0  0  0  0  0  0  0  0  0  0  0
    2.7310    1.7800   18.5230 H   0  0  0  0  0  0  0  0  0  0  0  0
    5.3620    0.3160   22.4670 H   0  0  0  0  0  0  0  0  0  0  0  0
    7.9870    3.5910   25.0210 H   0  0  0  0  0  0  0  0  0  0  0  0
    6.8230    2.7270   23.9790 H   0  0  0  0  0  0  0  0  0  0  0  0
    7.6500    0.7400   29.4960 H   0  0  0  0  0  0  0  0  0  0  0  0
    6.1010    1.5620   29.8760 H   0  0  0  0  0  0  0  0  0  0  0  0
    6.1000   -0.1480   29.3420 H   0  0  0  0  0  0  0  0  0  0  0  0
    7.1400   -2.8680   24.3560 H   0  0  0  0  0  0  0  0  0  0  0  0
    8.7240   -2.3280   24.9120 H   0  0  0  0  0  0  0  0  0  0  0  0
    8.6160   -3.7860   23.9630 H   0  0  0  0  0  0  0  0  0  0  0  0
    6.2360   -1.8750   22.3130 H   0  0  0  0  0  0  0  0  0  0  0  0
    7.1950   -2.6890   21.0710 H   0  0  0  0  0  0  0  0  0  0  0  0
    7.1030    0.2160   24.0280 H   0  0  0  0  0  0  0  0  0  0  0  0
    8.3950   -0.2600   25.1450 H   0  0  0  0  0  0  0  0  0  0  0  0
    9.1050   -2.5240   22.1380 H   0  0  0  0  0  0  0  0  0  0  0  0
  5  3  2  0
  7  1  2  0
  8  2  2  0
  9  3  1  0
  9  6  2  0
 10  4  2  0
 12 11  1  0
 15 14  1  0
 16 11  2  0
 16 13  1  0
 17  7  1  0
 17 12  2  0
 18 13  2  0
 18 17  1  0
 19  4  1  0
 20 14  2  0
 21 15  2  0
 22 10  1  0
 23 19  2  0
 23 20  1  0
 24 21  1  0
 24 22  2  0
 24 23  1  0
 25  8  1  0
 25 22  1  0
 26  7  1  0
 27  5  1  0
 27  6  1  0
 28  9  1  0
 28 26  1  0
 29 27  1  0
 31 25  1  0
 32 26  1  0
 33 30  1  0
 33 31  1  0
 34  8  1  0
 34 18  1  0
 34 32  1  0
 34 33  1  0
 35 16  1  0
 10 36  1  0
 11 37  1  0
 12 38  1  0
 13 39  1  0
 14 40  1  0
 15 41  1  0
 19 42  1  0
 20 43  1  0
 21 44  1  0
 28 45  1  0
 28 46  1  0
 29 47  1  0
 29 48  1  0
 29 49  1  0
 30 50  1  0
 30 51  1  0
 30 52  1  0
 31 53  1  0
 31 54  1  0
 32 55  1  0
 32 56  1  0
 33 57  1  0
M  END
>  <Favorite_cresset>
false

>  <Protein_cresset>
sars_P

>  <MW_cresset>
471.5

>  <#Atoms_cresset>
35

>  <SlogP_cresset>
2.7

>  <TPSA_cresset>
97.1

>  <Flexibility_cresset>
2.9

>  <HBA_cresset>
9

>  <HBD_cresset>
0

>  <Rof5_cresset>
0

>  <Confs_cresset>
0

>  <Poses_cresset>
0

$$$$
predicted (71)
  xed2sdf           3D
 
 59 64  0  0  1  0  0  0  0  0999 V2000
   10.5360    3.3250   23.9480 O   0  0  0  0  0  0  0  0  0  0  0  0
    8.3490    1.4280   21.4870 O   0  0  0  0  0  0  0  0  0  0  0  0
    6.1430   -0.0790   17.7010 N   0  0  0  0  0  0  0  0  0  0  0  0
    5.8200    3.1120   23.3160 N   0  0  0  0  0  0  0  0  0  0  0  0
   10.1010    2.1810   23.9370 C   0  0  0  0  0  0  0  0  0  0  0  0
    8.1820    0.2770   21.8240 C   0  0  0  0  0  0  0  0  0  0  0  0
    6.8450   -0.4840   18.7830 C   0  0  0  0  0  0  0  0  0  0  0  0
    5.3720    3.9240   22.3040 C   0  0  0  0  0  0  0  0  0  0  0  0
   13.2790    0.1740   23.2950 C   0  0  0  0  0  0  0  0  0  0  0  0
   12.4000    1.2270   23.5720 C   0  0  0  0  0  0  0  0  0  0  0  0
   11.3680   -1.2680   22.8530 C   0  0  0  0  0  0  0  0  0  0  0  0
    2.6720    1.6250   20.6300 C   0  0  0  0  0  0  0  0  0  0  0  0
    3.4040    1.2060   21.7480 C   0  0  0  0  0  0  0  0  0  0  0  0
   12.7570   -1.0690   22.9420 C   0  0  0  0  0  0  0  0  0  0  0  0
   10.9900    1.0400   23.5090 C   0  0  0  0  0  0  0  0  0  0  0  0
   10.4360   -0.2120   23.1070 C   0  0  0  0  0  0  0  0  0  0  0  0
    4.9780    0.5650   17.9020 C   0  0  0  0  0  0  0  0  0  0  0  0
    3.2030    1.4360   19.3490 C   0  0  0  0  0  0  0  0  0  0  0  0
    4.6680    0.6170   21.5940 C   0  0  0  0  0  0  0  0  0  0  0  0
    6.4320   -0.2370   20.1030 C   0  0  0  0  0  0  0  0  0  0  0  0
    7.0230    3.5620   23.6290 C   0  0  0  0  0  0  0  0  0  0  0  0
    6.2910    4.8960   22.0230 C   0  0  0  0  0  0  0  0  0  0  0  0
    4.4400    0.7920   19.1810 C   0  0  0  0  0  0  0  0  0  0  0  0
    5.1800    0.3810   20.3070 C   0  0  0  0  0  0  0  0  0  0  0  0
    7.2910   -0.5750   21.1900 N   0  0  0  0  0  0  0  0  0  0  0  0
    8.7880    1.8610   24.3300 N   0  0  0  0  0  0  0  0  0  0  0  0
    7.3310    4.7120   22.9020 N   0  0  0  0  0  0  0  0  0  0  0  0
    7.8390    2.9430   24.7600 C   0  0  0  0  0  0  0  0  0  0  0  0
    8.5070    5.5890   22.9750 C   0  0  0  0  0  0  0  0  0  0  0  0
    8.0610   -2.6700   24.1810 C   0  0  0  0  0  0  0  0  0  0  0  0
    7.1130   -1.8080   21.9250 C   0  0  0  0  0  0  0  0  0  0  0  0
    8.2580    0.4490   24.2680 C   0  0  0  0  0  0  0  0  0  0  0  0
    8.3230   -1.8580   22.8890 C   0  0  0  0  0  0  0  0  0  0  0  0
    8.8540   -0.3670   23.0580 C   0  0  0  0  0  0  0  0  0  0  0  0
   13.5960   -2.1000   22.6960 F   0  0  0  0  0  0  0  0  0  0  0  0
    7.7840   -1.0030   18.5900 H   0  0  0  0  0  0  0  0  0  0  0  0
    4.4130    3.7650   21.8310 H   0  0  0  0  0  0  0  0  0  0  0  0
   14.3560    0.2930   23.3960 H   0  0  0  0  0  0  0  0  0  0  0  0
   12.8370    2.1740   23.8900 H   0  0  0  0  0  0  0  0  0  0  0  0
   11.0700   -2.2770   22.6080 H   0  0  0  0  0  0  0  0  0  0  0  0
    1.7120    2.1210   20.7570 H   0  0  0  0  0  0  0  0  0  0  0  0
    3.0060    1.3720   22.7410 H   0  0  0  0  0  0  0  0  0  0  0  0
    4.4770    0.9300   17.0120 H   0  0  0  0  0  0  0  0  0  0  0  0
    2.6530    1.7950   18.4950 H   0  0  0  0  0  0  0  0  0  0  0  0
    5.2440    0.3580   22.4780 H   0  0  0  0  0  0  0  0  0  0  0  0
    6.2710    5.6910   21.2890 H   0  0  0  0  0  0  0  0  0  0  0  0
    8.3890    3.7360   25.2830 H   0  0  0  0  0  0  0  0  0  0  0  0
    7.1300    2.5330   25.4940 H   0  0  0  0  0  0  0  0  0  0  0  0
    9.4130    5.0250   22.7550 H   0  0  0  0  0  0  0  0  0  0  0  0
    8.5900    6.0480   23.9660 H   0  0  0  0  0  0  0  0  0  0  0  0
    8.4140    6.3680   22.2110 H   0  0  0  0  0  0  0  0  0  0  0  0
    7.0020   -2.6290   24.4670 H   0  0  0  0  0  0  0  0  0  0  0  0
    8.6770   -2.3000   25.0070 H   0  0  0  0  0  0  0  0  0  0  0  0
    8.3180   -3.7280   24.0370 H   0  0  0  0  0  0  0  0  0  0  0  0
    6.1700   -1.7400   22.4830 H   0  0  0  0  0  0  0  0  0  0  0  0
    7.0810   -2.6660   21.2360 H   0  0  0  0  0  0  0  0  0  0  0  0
    7.1590    0.4900   24.1720 H   0  0  0  0  0  0  0  0  0  0  0  0
    8.5090   -0.0590   25.2090 H   0  0  0  0  0  0  0  0  0  0  0  0
    9.0570   -2.4130   22.3050 H   0  0  0  0  0  0  0  0  0  0  0  0
  5  1  2  0
  6  2  2  0
  7  3  2  0
  8  4  1  0
 10  9  1  0
 13 12  1  0
 14  9  2  0
 14 11  1  0
 15  5  1  0
 15 10  2  0
 16 11  2  0
 16 15  1  0
 17  3  1  0
 18 12  2  0
 19 13  2  0
 20  7  1  0
 21  4  2  0
 22  8  2  0
 23 17  2  0
 23 18  1  0
 24 19  1  0
 24 20  2  0
 24 23  1  0
 25  6  1  0
 25 20  1  0
 26  5  1  0
 27 21  1  0
 27 22  1  0
 28 21  1  0
 28 26  1  0
 29 27  1  0
 31 25  1  0
 32 26  1  0
 33 30  1  0
 33 31  1  0
 34  6  1  0
 34 16  1  0
 34 32  1  0
 34 33  1  0
 35 14  1  0
  7 36  1  0
  8 37  1  0
  9 38  1  0
 10 39  1  0
 11 40  1  0
 12 41  1  0
 13 42  1  0
 17 43  1  0
 18 44  1  0
 19 45  1  0
 22 46  1  0
 28 47  1  0
 28 48  1  0
 29 49  1  0
 29 50  1  0
 29 51  1  0
 30 52  1  0
 30 53  1  0
 30 54  1  0
 31 55  1  0
 31 56  1  0
 32 57  1  0
 32 58  1  0
 33 59  1  0
M  END
>  <Favorite_cresset>
false

>  <Protein_cresset>
sars_P

>  <MW_cresset>
469.5

>  <#Atoms_cresset>
35

>  <SlogP_cresset>
4.0

>  <TPSA_cresset>
71.3

>  <Flexibility_cresset>
2.9

>  <HBA_cresset>
7

>  <HBD_cresset>
0

>  <Rof5_cresset>
0

>  <Confs_cresset>
0

>  <Poses_cresset>
0

$$$$
predicted (72)
  xed2sdf           3D
 
 60 64  0  0  1  0  0  0  0  0999 V2000
   13.7380   -2.1490   22.9360 Cl  0  0  0  0  0  0  0  0  0  0  0  0
   10.0590    3.4150   23.9780 O   0  0  0  0  0  0  0  0  0  0  0  0
    7.5970   -4.5170   24.2510 O   0  0  0  0  0  0  0  0  0  0  0  0
    7.9670    5.0160   24.7700 O   0  0  0  0  0  0  0  0  0  0  0  0
    8.4980    1.2610   21.5940 O   0  0  0  0  0  0  0  0  0  0  0  0
    6.0070   -0.2540   18.0280 N   0  0  0  0  0  0  0  0  0  0  0  0
    9.6990    2.2570   24.0920 C   0  0  0  0  0  0  0  0  0  0  0  0
    7.3330   -3.5880   24.9950 C   0  0  0  0  0  0  0  0  0  0  0  0
    7.3630    4.2380   24.0480 C   0  0  0  0  0  0  0  0  0  0  0  0
    8.1720    0.1920   22.0670 C   0  0  0  0  0  0  0  0  0  0  0  0
    6.7610   -0.6180   19.0870 C   0  0  0  0  0  0  0  0  0  0  0  0
   12.9980    0.4060   23.5570 C   0  0  0  0  0  0  0  0  0  0  0  0
   12.0610    1.3930   23.8750 C   0  0  0  0  0  0  0  0  0  0  0  0
   11.1840   -1.1860   23.2150 C   0  0  0  0  0  0  0  0  0  0  0  0
    2.9090    1.9570   21.0460 C   0  0  0  0  0  0  0  0  0  0  0  0
    3.6850    1.5760   22.1490 C   0  0  0  0  0  0  0  0  0  0  0  0
   12.5590   -0.8870   23.2490 C   0  0  0  0  0  0  0  0  0  0  0  0
   10.6780    1.1230   23.8230 C   0  0  0  0  0  0  0  0  0  0  0  0
   10.2210   -0.1740   23.4610 C   0  0  0  0  0  0  0  0  0  0  0  0
    4.9060    0.4860   18.2590 C   0  0  0  0  0  0  0  0  0  0  0  0
    3.3120    1.6140   19.7440 C   0  0  0  0  0  0  0  0  0  0  0  0
    4.8640    0.8460   21.9540 C   0  0  0  0  0  0  0  0  0  0  0  0
    6.4380   -0.2730   20.4050 C   0  0  0  0  0  0  0  0  0  0  0  0
    4.4930    0.8790   19.5480 C   0  0  0  0  0  0  0  0  0  0  0  0
    5.2770    0.4900   20.6540 C   0  0  0  0  0  0  0  0  0  0  0  0
    6.7330    4.6410   22.8810 N   0  0  0  0  0  0  0  0  0  0  0  0
    7.3020   -0.6610   21.4540 N   0  0  0  0  0  0  0  0  0  0  0  0
    8.3800    1.8740   24.3910 N   0  0  0  0  0  0  0  0  0  0  0  0
    7.5050   -2.2690   24.6200 N   0  0  0  0  0  0  0  0  0  0  0  0
    6.8330   -3.7980   26.4250 C   0  0  0  0  0  0  0  0  0  0  0  0
    6.7300    6.0270   22.3910 C   0  0  0  0  0  0  0  0  0  0  0  0
    7.1550    2.7470   24.3790 C   0  0  0  0  0  0  0  0  0  0  0  0
    7.1650   -1.9260   22.1540 C   0  0  0  0  0  0  0  0  0  0  0  0
    8.1010    0.4330   24.5620 C   0  0  0  0  0  0  0  0  0  0  0  0
    8.1430   -1.8610   23.3540 C   0  0  0  0  0  0  0  0  0  0  0  0
    8.6910   -0.3850   23.3830 C   0  0  0  0  0  0  0  0  0  0  0  0
    7.6580   -1.1940   18.8780 H   0  0  0  0  0  0  0  0  0  0  0  0
   14.0610    0.6350   23.5890 H   0  0  0  0  0  0  0  0  0  0  0  0
   12.4120    2.3760   24.1710 H   0  0  0  0  0  0  0  0  0  0  0  0
   10.9070   -2.2130   23.0040 H   0  0  0  0  0  0  0  0  0  0  0  0
    1.9900    2.5110   21.2020 H   0  0  0  0  0  0  0  0  0  0  0  0
    3.3580    1.8280   23.1570 H   0  0  0  0  0  0  0  0  0  0  0  0
    4.3420    0.7700   17.3760 H   0  0  0  0  0  0  0  0  0  0  0  0
    2.7110    1.9100   18.8890 H   0  0  0  0  0  0  0  0  0  0  0  0
    5.4330    0.5400   22.8250 H   0  0  0  0  0  0  0  0  0  0  0  0
    6.2110    3.9400   22.3700 H   0  0  0  0  0  0  0  0  0  0  0  0
    7.2240   -1.5400   25.2690 H   0  0  0  0  0  0  0  0  0  0  0  0
    5.7420   -3.7130   26.4680 H   0  0  0  0  0  0  0  0  0  0  0  0
    7.2650   -3.0600   27.1130 H   0  0  0  0  0  0  0  0  0  0  0  0
    7.1180   -4.7970   26.7750 H   0  0  0  0  0  0  0  0  0  0  0  0
    7.7580    6.3540   22.1890 H   0  0  0  0  0  0  0  0  0  0  0  0
    6.1420    6.0890   21.4670 H   0  0  0  0  0  0  0  0  0  0  0  0
    6.2820    6.6910   23.1420 H   0  0  0  0  0  0  0  0  0  0  0  0
    6.6510    2.7010   25.3520 H   0  0  0  0  0  0  0  0  0  0  0  0
    6.4600    2.3470   23.6330 H   0  0  0  0  0  0  0  0  0  0  0  0
    6.1250   -2.0670   22.4720 H   0  0  0  0  0  0  0  0  0  0  0  0
    7.4380   -2.7380   21.4740 H   0  0  0  0  0  0  0  0  0  0  0  0
    7.0220    0.2550   24.6560 H   0  0  0  0  0  0  0  0  0  0  0  0
    8.5890    0.0920   25.4870 H   0  0  0  0  0  0  0  0  0  0  0  0
    8.9430   -2.5720   23.1220 H   0  0  0  0  0  0  0  0  0  0  0  0
  7  2  2  0
  8  3  2  0
  9  4  2  0
 10  5  2  0
 11  6  2  0
 13 12  1  0
 16 15  1  0
 17  1  1  0
 17 12  2  0
 17 14  1  0
 18  7  1  0
 18 13  2  0
 19 14  2  0
 19 18  1  0
 20  6  1  0
 21 15  2  0
 22 16  2  0
 23 11  1  0
 24 20  2  0
 24 21  1  0
 25 22  1  0
 25 23  2  0
 25 24  1  0
 26  9  1  0
 27 10  1  0
 27 23  1  0
 28  7  1  0
 29  8  1  0
 30  8  1  0
 31 26  1  0
 32  9  1  0
 32 28  1  0
 33 27  1  0
 34 28  1  0
 35 29  1  0
 35 33  1  0
 36 10  1  0
 36 19  1  0
 36 34  1  0
 36 35  1  0
 11 37  1  0
 12 38  1  0
 13 39  1  0
 14 40  1  0
 15 41  1  0
 16 42  1  0
 20 43  1  0
 21 44  1  0
 22 45  1  0
 26 46  1  0
 29 47  1  0
 30 48  1  0
 30 49  1  0
 30 50  1  0
 31 51  1  0
 31 52  1  0
 31 53  1  0
 32 54  1  0
 32 55  1  0
 33 56  1  0
 33 57  1  0
 34 58  1  0
 34 59  1  0
 35 60  1  0
M  END
>  <Favorite_cresset>
false

>  <Protein_cresset>
sars_P

>  <MW_cresset>
506.0

>  <#Atoms_cresset>
36

>  <SlogP_cresset>
1.9

>  <TPSA_cresset>
111.7

>  <Flexibility_cresset>
3.9

>  <HBA_cresset>
9

>  <HBD_cresset>
2

>  <Rof5_cresset>
1

>  <Confs_cresset>
0

>  <Poses_cresset>
0

$$$$
predicted (73)
  xed2sdf           3D
 
 55 60  0  0  1  0  0  0  0  0999 V2000
   13.6750   -2.1570   23.3110 Cl  0  0  0  0  0  0  0  0  0  0  0  0
   10.1990    3.5600   23.8940 O   0  0  0  0  0  0  0  0  0  0  0  0
    8.5080    1.1840   21.4780 O   0  0  0  0  0  0  0  0  0  0  0  0
    6.1310   -0.2500   18.0460 N   0  0  0  0  0  0  0  0  0  0  0  0
    9.7780    2.4170   23.9580 C   0  0  0  0  0  0  0  0  0  0  0  0
    8.1510    0.1760   22.0390 C   0  0  0  0  0  0  0  0  0  0  0  0
    6.8090   -0.6300   19.1440 C   0  0  0  0  0  0  0  0  0  0  0  0
   13.0100    0.4640   23.6550 C   0  0  0  0  0  0  0  0  0  0  0  0
   12.0950    1.5000   23.8370 C   0  0  0  0  0  0  0  0  0  0  0  0
   11.1590   -1.0920   23.4120 C   0  0  0  0  0  0  0  0  0  0  0  0
    2.6890    1.6810   20.8560 C   0  0  0  0  0  0  0  0  0  0  0  0
    3.3230    1.1970   22.0060 C   0  0  0  0  0  0  0  0  0  0  0  0
   12.5350   -0.8340   23.4600 C   0  0  0  0  0  0  0  0  0  0  0  0
   10.7070    1.2560   23.7710 C   0  0  0  0  0  0  0  0  0  0  0  0
   10.2080   -0.0500   23.5210 C   0  0  0  0  0  0  0  0  0  0  0  0
    4.9840    0.4370   18.2170 C   0  0  0  0  0  0  0  0  0  0  0  0
    3.2540    1.4520   19.5960 C   0  0  0  0  0  0  0  0  0  0  0  0
    4.5420    0.5080   21.8990 C   0  0  0  0  0  0  0  0  0  0  0  0
    6.3520   -0.3880   20.4480 C   0  0  0  0  0  0  0  0  0  0  0  0
    4.4440    0.7250   19.4800 C   0  0  0  0  0  0  0  0  0  0  0  0
    5.1160    0.2730   20.6290 C   0  0  0  0  0  0  0  0  0  0  0  0
    7.2010   -0.6800   21.5370 N   0  0  0  0  0  0  0  0  0  0  0  0
    8.4340    2.1060   24.1850 N   0  0  0  0  0  0  0  0  0  0  0  0
    7.4080    3.1320   24.2500 C   0  0  0  0  0  0  0  0  0  0  0  0
    7.7140   -2.4100   24.7070 C   0  0  0  0  0  0  0  0  0  0  0  0
    7.0460   -1.8610   22.3430 C   0  0  0  0  0  0  0  0  0  0  0  0
    7.9880    0.6970   24.4180 C   0  0  0  0  0  0  0  0  0  0  0  0
    7.5430    4.4760   23.4080 C   0  0  0  0  0  0  0  0  0  0  0  0
    6.1680    3.1250   23.2660 C   0  0  0  0  0  0  0  0  0  0  0  0
    8.1650   -1.7720   23.3850 C   0  0  0  0  0  0  0  0  0  0  0  0
    8.6680   -0.2690   23.4000 C   0  0  0  0  0  0  0  0  0  0  0  0
    6.3430    4.4000   22.6220 N   0  0  0  0  0  0  0  0  0  0  0  0
    7.7610   -1.1340   18.9810 H   0  0  0  0  0  0  0  0  0  0  0  0
   14.0770    0.6610   23.7080 H   0  0  0  0  0  0  0  0  0  0  0  0
   12.4630    2.5040   24.0390 H   0  0  0  0  0  0  0  0  0  0  0  0
   10.8820   -2.1310   23.3040 H   0  0  0  0  0  0  0  0  0  0  0  0
    1.7600    2.2330   20.9360 H   0  0  0  0  0  0  0  0  0  0  0  0
    2.8740    1.3750   22.9800 H   0  0  0  0  0  0  0  0  0  0  0  0
    4.5000    0.7820   17.3090 H   0  0  0  0  0  0  0  0  0  0  0  0
    2.7800    1.8470   18.7070 H   0  0  0  0  0  0  0  0  0  0  0  0
    5.0210    0.1650   22.8090 H   0  0  0  0  0  0  0  0  0  0  0  0
    7.1190    3.2920   25.2980 H   0  0  0  0  0  0  0  0  0  0  0  0
    6.7620   -1.9870   25.0570 H   0  0  0  0  0  0  0  0  0  0  0  0
    8.4810   -2.2910   25.4800 H   0  0  0  0  0  0  0  0  0  0  0  0
    7.5580   -3.4850   24.5400 H   0  0  0  0  0  0  0  0  0  0  0  0
    6.0560   -1.8730   22.8110 H   0  0  0  0  0  0  0  0  0  0  0  0
    7.1700   -2.7550   21.7240 H   0  0  0  0  0  0  0  0  0  0  0  0
    6.8960    0.6240   24.3470 H   0  0  0  0  0  0  0  0  0  0  0  0
    8.2750    0.4160   25.4370 H   0  0  0  0  0  0  0  0  0  0  0  0
    8.4020    4.4830   22.7270 H   0  0  0  0  0  0  0  0  0  0  0  0
    7.5860    5.3790   24.0240 H   0  0  0  0  0  0  0  0  0  0  0  0
    5.2030    3.0750   23.7780 H   0  0  0  0  0  0  0  0  0  0  0  0
    6.2150    2.3480   22.4990 H   0  0  0  0  0  0  0  0  0  0  0  0
    8.9370   -2.4130   22.9570 H   0  0  0  0  0  0  0  0  0  0  0  0
    6.6200    4.2200   21.6590 H   0  0  0  0  0  0  0  0  0  0  0  0
  5  2  2  0
  6  3  2  0
  7  4  2  0
  9  8  1  0
 12 11  1  0
 13  1  1  0
 13  8  2  0
 13 10  1  0
 14  5  1  0
 14  9  2  0
 15 10  2  0
 15 14  1  0
 16  4  1  0
 17 11  2  0
 18 12  2  0
 19  7  1  0
 20 16  2  0
 20 17  1  0
 21 18  1  0
 21 19  2  0
 21 20  1  0
 22  6  1  0
 22 19  1  0
 23  5  1  0
 24 23  1  0
 26 22  1  0
 27 23  1  0
 28 24  1  0
 29 24  1  0
 30 25  1  0
 30 26  1  0
 31  6  1  0
 31 15  1  0
 31 27  1  0
 31 30  1  0
 32 28  1  0
 32 29  1  0
  7 33  1  0
  8 34  1  0
  9 35  1  0
 10 36  1  0
 11 37  1  0
 12 38  1  0
 16 39  1  0
 17 40  1  0
 18 41  1  0
 24 42  1  0
 25 43  1  0
 25 44  1  0
 25 45  1  0
 26 46  1  0
 26 47  1  0
 27 48  1  0
 27 49  1  0
 28 50  1  0
 28 51  1  0
 29 52  1  0
 29 53  1  0
 30 54  1  0
 32 55  1  0
M  END
>  <Favorite_cresset>
false

>  <Protein_cresset>
sars_P

>  <MW_cresset>
446.9

>  <#Atoms_cresset>
32

>  <SlogP_cresset>
3.3

>  <TPSA_cresset>
65.5

>  <Flexibility_cresset>
0.9

>  <HBA_cresset>
6

>  <HBD_cresset>
1

>  <Rof5_cresset>
0

>  <Confs_cresset>
0

>  <Poses_cresset>
0

$$$$
predicted (74)
  xed2sdf           3D
 
 55 60  0  0  1  0  0  0  0  0999 V2000
   10.1130    3.2960   23.9660 O   0  0  0  0  0  0  0  0  0  0  0  0
    8.3740    1.3690   21.4950 O   0  0  0  0  0  0  0  0  0  0  0  0
    5.4560    3.2660   23.6360 N   0  0  0  0  0  0  0  0  0  0  0  0
    6.1110   -0.0290   17.7090 N   0  0  0  0  0  0  0  0  0  0  0  0
    5.0960    4.2300   22.6280 O   0  0  0  0  0  0  0  0  0  0  0  0
    9.7850    2.1200   23.9520 C   0  0  0  0  0  0  0  0  0  0  0  0
    8.1230    0.2360   21.8420 C   0  0  0  0  0  0  0  0  0  0  0  0
    6.7830   -0.4760   18.7940 C   0  0  0  0  0  0  0  0  0  0  0  0
    6.7660    3.3930   23.8340 C   0  0  0  0  0  0  0  0  0  0  0  0
    6.2490    4.8570   22.2840 C   0  0  0  0  0  0  0  0  0  0  0  0
    7.3090    4.3930   22.9760 C   0  0  0  0  0  0  0  0  0  0  0  0
   13.0530    0.2800   23.4320 C   0  0  0  0  0  0  0  0  0  0  0  0
   12.1240    1.3040   23.6060 C   0  0  0  0  0  0  0  0  0  0  0  0
   11.2270   -1.2850   23.0390 C   0  0  0  0  0  0  0  0  0  0  0  0
    2.6970    1.7630   20.6480 C   0  0  0  0  0  0  0  0  0  0  0  0
    3.4180    1.3410   21.7710 C   0  0  0  0  0  0  0  0  0  0  0  0
   12.6020   -1.0120   23.1540 C   0  0  0  0  0  0  0  0  0  0  0  0
   10.7410    1.0400   23.5220 C   0  0  0  0  0  0  0  0  0  0  0  0
   10.2680   -0.2490   23.1790 C   0  0  0  0  0  0  0  0  0  0  0  0
    4.9790    0.6710   17.9120 C   0  0  0  0  0  0  0  0  0  0  0  0
    3.2010    1.5430   19.3570 C   0  0  0  0  0  0  0  0  0  0  0  0
    4.6480    0.6940   21.6000 C   0  0  0  0  0  0  0  0  0  0  0  0
    6.3850   -0.2000   20.1080 C   0  0  0  0  0  0  0  0  0  0  0  0
    4.4360    0.8910   19.1870 C   0  0  0  0  0  0  0  0  0  0  0  0
    5.1600    0.4600   20.3130 C   0  0  0  0  0  0  0  0  0  0  0  0
    7.2140   -0.5810   21.1960 N   0  0  0  0  0  0  0  0  0  0  0  0
    8.5280    1.6870   24.3950 N   0  0  0  0  0  0  0  0  0  0  0  0
    7.5650    2.6840   24.9150 C   0  0  0  0  0  0  0  0  0  0  0  0
    7.9120   -2.8030   24.0770 C   0  0  0  0  0  0  0  0  0  0  0  0
    7.0250   -1.8450   21.8800 C   0  0  0  0  0  0  0  0  0  0  0  0
    8.0670    0.2640   24.2950 C   0  0  0  0  0  0  0  0  0  0  0  0
    8.2300   -1.9430   22.8340 C   0  0  0  0  0  0  0  0  0  0  0  0
    8.7240   -0.4590   23.0780 C   0  0  0  0  0  0  0  0  0  0  0  0
   13.4980   -2.0130   23.0420 F   0  0  0  0  0  0  0  0  0  0  0  0
    7.6910   -1.0400   18.5980 H   0  0  0  0  0  0  0  0  0  0  0  0
    6.1730    5.6570   21.5610 H   0  0  0  0  0  0  0  0  0  0  0  0
    8.3250    4.7590   22.9010 H   0  0  0  0  0  0  0  0  0  0  0  0
   14.1130    0.4860   23.5380 H   0  0  0  0  0  0  0  0  0  0  0  0
   12.4730    2.2980   23.8650 H   0  0  0  0  0  0  0  0  0  0  0  0
   10.9400   -2.3190   22.9080 H   0  0  0  0  0  0  0  0  0  0  0  0
    1.7490    2.2760   20.7790 H   0  0  0  0  0  0  0  0  0  0  0  0
    3.0390    1.5210   22.7760 H   0  0  0  0  0  0  0  0  0  0  0  0
    4.5030    1.0870   17.0290 H   0  0  0  0  0  0  0  0  0  0  0  0
    2.6230    1.8730   18.5070 H   0  0  0  0  0  0  0  0  0  0  0  0
    5.2020    0.3760   22.4730 H   0  0  0  0  0  0  0  0  0  0  0  0
    8.1220    3.4390   25.4870 H   0  0  0  0  0  0  0  0  0  0  0  0
    6.8780    2.1950   25.6190 H   0  0  0  0  0  0  0  0  0  0  0  0
    6.8660   -2.6860   24.3940 H   0  0  0  0  0  0  0  0  0  0  0  0
    8.5700   -2.5600   24.9190 H   0  0  0  0  0  0  0  0  0  0  0  0
    8.0690   -3.8600   23.8290 H   0  0  0  0  0  0  0  0  0  0  0  0
    6.0750   -1.8060   22.4340 H   0  0  0  0  0  0  0  0  0  0  0  0
    7.0110   -2.6830   21.1700 H   0  0  0  0  0  0  0  0  0  0  0  0
    6.9770    0.2480   24.1580 H   0  0  0  0  0  0  0  0  0  0  0  0
    8.2910   -0.2680   25.2330 H   0  0  0  0  0  0  0  0  0  0  0  0
    8.9850   -2.4810   22.2500 H   0  0  0  0  0  0  0  0  0  0  0  0
  5  3  1  0
  6  1  2  0
  7  2  2  0
  8  4  2  0
  9  3  2  0
 10  5  1  0
 11  9  1  0
 11 10  2  0
 13 12  1  0
 16 15  1  0
 17 12  2  0
 17 14  1  0
 18  6  1  0
 18 13  2  0
 19 14  2  0
 19 18  1  0
 20  4  1  0
 21 15  2  0
 22 16  2  0
 23  8  1  0
 24 20  2  0
 24 21  1  0
 25 22  1  0
 25 23  2  0
 25 24  1  0
 26  7  1  0
 26 23  1  0
 27  6  1  0
 28  9  1  0
 28 27  1  0
 30 26  1  0
 31 27  1  0
 32 29  1  0
 32 30  1  0
 33  7  1  0
 33 19  1  0
 33 31  1  0
 33 32  1  0
 34 17  1  0
  8 35  1  0
 10 36  1  0
 11 37  1  0
 12 38  1  0
 13 39  1  0
 14 40  1  0
 15 41  1  0
 16 42  1  0
 20 43  1  0
 21 44  1  0
 22 45  1  0
 28 46  1  0
 28 47  1  0
 29 48  1  0
 29 49  1  0
 29 50  1  0
 30 51  1  0
 30 52  1  0
 31 53  1  0
 31 54  1  0
 32 55  1  0
M  END
>  <Favorite_cresset>
false

>  <Protein_cresset>
sars_P

>  <MW_cresset>
456.5

>  <#Atoms_cresset>
34

>  <SlogP_cresset>
3.6

>  <TPSA_cresset>
79.5

>  <Flexibility_cresset>
2.9

>  <HBA_cresset>
7

>  <HBD_cresset>
0

>  <Rof5_cresset>
0

>  <Confs_cresset>
0

>  <Poses_cresset>
0

$$$$
predicted (75)
  xed2sdf           3D
 
 70 75  0  0  1  0  0  0  0  0999 V2000
   13.8660   -2.1640   23.0650 Cl  0  0  0  0  0  0  0  0  0  0  0  0
   10.0030    3.3330   23.9740 O   0  0  0  0  0  0  0  0  0  0  0  0
    7.6030    4.8780   25.0800 O   0  0  0  0  0  0  0  0  0  0  0  0
    8.4740    1.2720   21.4900 O   0  0  0  0  0  0  0  0  0  0  0  0
    6.1140   -0.2210   17.8560 N   0  0  0  0  0  0  0  0  0  0  0  0
    6.4580    9.9350   24.8260 O   0  0  0  0  0  0  0  0  0  0  0  0
    9.7070    2.1510   24.0000 C   0  0  0  0  0  0  0  0  0  0  0  0
    7.3350    4.0580   24.2130 C   0  0  0  0  0  0  0  0  0  0  0  0
    8.2010    0.1690   21.9120 C   0  0  0  0  0  0  0  0  0  0  0  0
    6.8140   -0.6020   18.9410 C   0  0  0  0  0  0  0  0  0  0  0  0
    4.2400    8.1950   22.4310 C   0  0  0  0  0  0  0  0  0  0  0  0
   13.0740    0.4160   23.4440 C   0  0  0  0  0  0  0  0  0  0  0  0
    4.6760    9.1540   23.3580 C   0  0  0  0  0  0  0  0  0  0  0  0
   12.1090    1.4000   23.6910 C   0  0  0  0  0  0  0  0  0  0  0  0
    5.0340    7.0650   22.1540 C   0  0  0  0  0  0  0  0  0  0  0  0
    6.7040    7.8460   23.7280 C   0  0  0  0  0  0  0  0  0  0  0  0
   11.3140   -1.2250   23.1080 C   0  0  0  0  0  0  0  0  0  0  0  0
    2.8480    1.8990   20.7590 C   0  0  0  0  0  0  0  0  0  0  0  0
    3.5810    1.5200   21.8930 C   0  0  0  0  0  0  0  0  0  0  0  0
   12.6720   -0.9000   23.1920 C   0  0  0  0  0  0  0  0  0  0  0  0
    5.9210    8.9760   23.9990 C   0  0  0  0  0  0  0  0  0  0  0  0
   10.7370    1.0830   23.6550 C   0  0  0  0  0  0  0  0  0  0  0  0
    6.2850    6.8850   22.7890 C   0  0  0  0  0  0  0  0  0  0  0  0
   10.3270   -0.2260   23.2870 C   0  0  0  0  0  0  0  0  0  0  0  0
    4.9970    0.5050   18.0510 C   0  0  0  0  0  0  0  0  0  0  0  0
    3.3200    1.5690   19.4780 C   0  0  0  0  0  0  0  0  0  0  0  0
    4.7870    0.8100   21.7480 C   0  0  0  0  0  0  0  0  0  0  0  0
    6.4410   -0.2720   20.2490 C   0  0  0  0  0  0  0  0  0  0  0  0
    4.5190    0.8540   19.3250 C   0  0  0  0  0  0  0  0  0  0  0  0
    5.2600    0.4700   20.4590 C   0  0  0  0  0  0  0  0  0  0  0  0
    7.0850    4.4250   22.8950 N   0  0  0  0  0  0  0  0  0  0  0  0
    7.2780   -0.6530   21.3160 N   0  0  0  0  0  0  0  0  0  0  0  0
    8.4210    1.6840   24.3320 N   0  0  0  0  0  0  0  0  0  0  0  0
    6.1950   11.3240   24.5890 C   0  0  0  0  0  0  0  0  0  0  0  0
    7.1960    2.5390   24.5260 C   0  0  0  0  0  0  0  0  0  0  0  0
    7.2650    5.7900   22.3270 C   0  0  0  0  0  0  0  0  0  0  0  0
    8.0080   -2.8030   24.1950 C   0  0  0  0  0  0  0  0  0  0  0  0
    7.1440   -1.9360   21.9750 C   0  0  0  0  0  0  0  0  0  0  0  0
    8.1770    0.2140   24.3810 C   0  0  0  0  0  0  0  0  0  0  0  0
    8.3490   -1.9870   22.9330 C   0  0  0  0  0  0  0  0  0  0  0  0
    8.8080   -0.4880   23.1570 C   0  0  0  0  0  0  0  0  0  0  0  0
    7.7300   -1.1590   18.7540 H   0  0  0  0  0  0  0  0  0  0  0  0
    3.3060    8.3530   21.8920 H   0  0  0  0  0  0  0  0  0  0  0  0
   14.1270    0.6770   23.4850 H   0  0  0  0  0  0  0  0  0  0  0  0
    4.0590   10.0290   23.5480 H   0  0  0  0  0  0  0  0  0  0  0  0
   12.4210    2.4100   23.9370 H   0  0  0  0  0  0  0  0  0  0  0  0
    4.6930    6.3640   21.4010 H   0  0  0  0  0  0  0  0  0  0  0  0
    7.6960    7.7890   24.1630 H   0  0  0  0  0  0  0  0  0  0  0  0
   11.0730   -2.2650   22.9210 H   0  0  0  0  0  0  0  0  0  0  0  0
    1.9110    2.4380   20.8770 H   0  0  0  0  0  0  0  0  0  0  0  0
    3.2080    1.7760   22.8830 H   0  0  0  0  0  0  0  0  0  0  0  0
    4.4880    0.8500   17.1580 H   0  0  0  0  0  0  0  0  0  0  0  0
    2.7430    1.8580   18.6100 H   0  0  0  0  0  0  0  0  0  0  0  0
    5.3270    0.5000   22.6390 H   0  0  0  0  0  0  0  0  0  0  0  0
    7.0000    3.6570   22.2370 H   0  0  0  0  0  0  0  0  0  0  0  0
    5.1480   11.5630   24.8050 H   0  0  0  0  0  0  0  0  0  0  0  0
    6.8210   11.9250   25.2550 H   0  0  0  0  0  0  0  0  0  0  0  0
    6.4240   11.5870   23.5460 H   0  0  0  0  0  0  0  0  0  0  0  0
    6.3930    2.1470   23.8870 H   0  0  0  0  0  0  0  0  0  0  0  0
    6.8710    2.4540   25.5700 H   0  0  0  0  0  0  0  0  0  0  0  0
    8.2980    6.1080   22.5220 H   0  0  0  0  0  0  0  0  0  0  0  0
    7.1740    5.7360   21.2360 H   0  0  0  0  0  0  0  0  0  0  0  0
    7.0040   -2.5430   24.5590 H   0  0  0  0  0  0  0  0  0  0  0  0
    8.7380   -2.6370   24.9990 H   0  0  0  0  0  0  0  0  0  0  0  0
    8.0000   -3.8740   23.9500 H   0  0  0  0  0  0  0  0  0  0  0  0
    6.1950   -1.9370   22.5350 H   0  0  0  0  0  0  0  0  0  0  0  0
    7.1810   -2.7760   21.2590 H   0  0  0  0  0  0  0  0  0  0  0  0
    7.1040    0.0020   24.4250 H   0  0  0  0  0  0  0  0  0  0  0  0
    8.6530   -0.1880   25.2830 H   0  0  0  0  0  0  0  0  0  0  0  0
    9.1230   -2.5200   22.3700 H   0  0  0  0  0  0  0  0  0  0  0  0
  7  2  2  0
  8  3  2  0
  9  4  2  0
 10  5  2  0
 13 11  2  0
 14 12  1  0
 15 11  1  0
 19 18  1  0
 20  1  1  0
 20 12  2  0
 20 17  1  0
 21  6  1  0
 21 13  1  0
 21 16  2  0
 22  7  1  0
 22 14  2  0
 23 15  2  0
 23 16  1  0
 24 17  2  0
 24 22  1  0
 25  5  1  0
 26 18  2  0
 27 19  2  0
 28 10  1  0
 29 25  2  0
 29 26  1  0
 30 27  1  0
 30 28  2  0
 30 29  1  0
 31  8  1  0
 32  9  1  0
 32 28  1  0
 33  7  1  0
 34  6  1  0
 35  8  1  0
 35 33  1  0
 36 23  1  0
 36 31  1  0
 38 32  1  0
 39 33  1  0
 40 37  1  0
 40 38  1  0
 41  9  1  0
 41 24  1  0
 41 39  1  0
 41 40  1  0
 10 42  1  0
 11 43  1  0
 12 44  1  0
 13 45  1  0
 14 46  1  0
 15 47  1  0
 16 48  1  0
 17 49  1  0
 18 50  1  0
 19 51  1  0
 25 52  1  0
 26 53  1  0
 27 54  1  0
 31 55  1  0
 34 56  1  0
 34 57  1  0
 34 58  1  0
 35 59  1  0
 35 60  1  0
 36 61  1  0
 36 62  1  0
 37 63  1  0
 37 64  1  0
 37 65  1  0
 38 66  1  0
 38 67  1  0
 39 68  1  0
 39 69  1  0
 40 70  1  0
M  END
>  <Favorite_cresset>
false

>  <Protein_cresset>
sars_P

>  <MW_cresset>
569.1

>  <#Atoms_cresset>
41

>  <SlogP_cresset>
4.6

>  <TPSA_cresset>
91.8

>  <Flexibility_cresset>
5.4

>  <HBA_cresset>
8

>  <HBD_cresset>
1

>  <Rof5_cresset>
1

>  <Confs_cresset>
0

>  <Poses_cresset>
0

$$$$
predicted (76)
  xed2sdf           3D
 
 60 64  0  0  1  0  0  0  0  0999 V2000
   13.8850   -2.4570   23.1270 Cl  0  0  0  0  0  0  0  0  0  0  0  0
   10.4860    3.3540   23.7760 O   0  0  0  0  0  0  0  0  0  0  0  0
    8.4820    1.3660   21.4690 O   0  0  0  0  0  0  0  0  0  0  0  0
    6.1450   -0.1000   17.7700 N   0  0  0  0  0  0  0  0  0  0  0  0
   10.0780    2.2040   23.8330 C   0  0  0  0  0  0  0  0  0  0  0  0
    8.2910    0.2310   21.8390 C   0  0  0  0  0  0  0  0  0  0  0  0
    6.8500   -0.5260   18.8400 C   0  0  0  0  0  0  0  0  0  0  0  0
   13.2740    0.1640   23.4590 C   0  0  0  0  0  0  0  0  0  0  0  0
   12.3810    1.2190   23.6470 C   0  0  0  0  0  0  0  0  0  0  0  0
   11.3870   -1.3220   23.1130 C   0  0  0  0  0  0  0  0  0  0  0  0
    2.8820    1.8800   20.7550 C   0  0  0  0  0  0  0  0  0  0  0  0
    3.6350    1.4800   21.8690 C   0  0  0  0  0  0  0  0  0  0  0  0
   12.7710   -1.1130   23.2200 C   0  0  0  0  0  0  0  0  0  0  0  0
   10.9900    1.0360   23.5170 C   0  0  0  0  0  0  0  0  0  0  0  0
   10.4630   -0.2370   23.1850 C   0  0  0  0  0  0  0  0  0  0  0  0
    5.0200    0.6110   17.9810 C   0  0  0  0  0  0  0  0  0  0  0  0
    3.3150    1.5650   19.4580 C   0  0  0  0  0  0  0  0  0  0  0  0
    4.8290    0.7690   21.6780 C   0  0  0  0  0  0  0  0  0  0  0  0
    6.4980   -0.2380   20.1670 C   0  0  0  0  0  0  0  0  0  0  0  0
    4.5320    0.8850   19.2680 C   0  0  0  0  0  0  0  0  0  0  0  0
    5.2920    0.4710   20.3840 C   0  0  0  0  0  0  0  0  0  0  0  0
    7.3780   -0.6060   21.2320 N   0  0  0  0  0  0  0  0  0  0  0  0
    8.7570    1.8940   24.1870 N   0  0  0  0  0  0  0  0  0  0  0  0
    7.7870    3.0090   24.4400 C   0  0  0  0  0  0  0  0  0  0  0  0
    8.0390   -2.6880   24.2320 C   0  0  0  0  0  0  0  0  0  0  0  0
    7.2090   -1.8450   21.9680 C   0  0  0  0  0  0  0  0  0  0  0  0
    8.2890    0.4630   24.2590 C   0  0  0  0  0  0  0  0  0  0  0  0
    6.3090    5.7160   22.0870 C   0  0  0  0  0  0  0  0  0  0  0  0
    5.0690    4.6980   23.9660 C   0  0  0  0  0  0  0  0  0  0  0  0
    7.2440    3.6590   23.1200 C   0  0  0  0  0  0  0  0  0  0  0  0
    8.3850   -1.8810   22.9580 C   0  0  0  0  0  0  0  0  0  0  0  0
    8.9090   -0.3910   23.1030 C   0  0  0  0  0  0  0  0  0  0  0  0
    6.3790    4.8640   23.2960 N   0  0  0  0  0  0  0  0  0  0  0  0
    7.7590   -1.0840   18.6270 H   0  0  0  0  0  0  0  0  0  0  0  0
   14.3440    0.3470   23.5140 H   0  0  0  0  0  0  0  0  0  0  0  0
   12.7720    2.1910   23.9220 H   0  0  0  0  0  0  0  0  0  0  0  0
   11.0790   -2.3550   23.0270 H   0  0  0  0  0  0  0  0  0  0  0  0
    1.9410    2.4010   20.9000 H   0  0  0  0  0  0  0  0  0  0  0  0
    3.2860    1.6960   22.8780 H   0  0  0  0  0  0  0  0  0  0  0  0
    4.5090    0.9760   17.0950 H   0  0  0  0  0  0  0  0  0  0  0  0
    2.7020    1.8540   18.6120 H   0  0  0  0  0  0  0  0  0  0  0  0
    5.3910    0.4480   22.5440 H   0  0  0  0  0  0  0  0  0  0  0  0
    8.3100    3.7790   25.0210 H   0  0  0  0  0  0  0  0  0  0  0  0
    6.9560    2.6490   25.0540 H   0  0  0  0  0  0  0  0  0  0  0  0
    6.9930   -2.5320   24.5360 H   0  0  0  0  0  0  0  0  0  0  0  0
    8.7020   -2.4570   25.0750 H   0  0  0  0  0  0  0  0  0  0  0  0
    8.1580   -3.7560   23.9980 H   0  0  0  0  0  0  0  0  0  0  0  0
    6.2490   -1.8310   22.5010 H   0  0  0  0  0  0  0  0  0  0  0  0
    7.2390   -2.7080   21.2930 H   0  0  0  0  0  0  0  0  0  0  0  0
    7.1950    0.4120   24.2130 H   0  0  0  0  0  0  0  0  0  0  0  0
    8.5820    0.0360   25.2230 H   0  0  0  0  0  0  0  0  0  0  0  0
    5.2740    5.9690   21.8250 H   0  0  0  0  0  0  0  0  0  0  0  0
    6.7500    5.2060   21.2240 H   0  0  0  0  0  0  0  0  0  0  0  0
    6.8540    6.6530   22.2510 H   0  0  0  0  0  0  0  0  0  0  0  0
    4.2470    5.0420   23.3240 H   0  0  0  0  0  0  0  0  0  0  0  0
    5.0440    5.3040   24.8790 H   0  0  0  0  0  0  0  0  0  0  0  0
    4.8690    3.6520   24.2220 H   0  0  0  0  0  0  0  0  0  0  0  0
    8.1200    3.9690   22.5380 H   0  0  0  0  0  0  0  0  0  0  0  0
    6.7130    2.9060   22.5290 H   0  0  0  0  0  0  0  0  0  0  0  0
    9.1380   -2.4580   22.4160 H   0  0  0  0  0  0  0  0  0  0  0  0
  5  2  2  0
  6  3  2  0
  7  4  2  0
  9  8  1  0
 12 11  1  0
 13  1  1  0
 13  8  2  0
 13 10  1  0
 14  5  1  0
 14  9  2  0
 15 10  2  0
 15 14  1  0
 16  4  1  0
 17 11  2  0
 18 12  2  0
 19  7  1  0
 20 16  2  0
 20 17  1  0
 21 18  1  0
 21 19  2  0
 21 20  1  0
 22  6  1  0
 22 19  1  0
 23  5  1  0
 24 23  1  0
 26 22  1  0
 27 23  1  0
 30 24  1  0
 31 25  1  0
 31 26  1  0
 32  6  1  0
 32 15  1  0
 32 27  1  0
 32 31  1  0
 33 28  1  0
 33 29  1  0
 33 30  1  0
  7 34  1  0
  8 35  1  0
  9 36  1  0
 10 37  1  0
 11 38  1  0
 12 39  1  0
 16 40  1  0
 17 41  1  0
 18 42  1  0
 24 43  1  0
 24 44  1  0
 25 45  1  0
 25 46  1  0
 25 47  1  0
 26 48  1  0
 26 49  1  0
 27 50  1  0
 27 51  1  0
 28 52  1  0
 28 53  1  0
 28 54  1  0
 29 55  1  0
 29 56  1  0
 29 57  1  0
 30 58  1  0
 30 59  1  0
 31 60  1  0
M  END
>  <Favorite_cresset>
false

>  <Protein_cresset>
sars_P

>  <MW_cresset>
463.0

>  <#Atoms_cresset>
33

>  <SlogP_cresset>
3.9

>  <TPSA_cresset>
56.8

>  <Flexibility_cresset>
3.9

>  <HBA_cresset>
6

>  <HBD_cresset>
0

>  <Rof5_cresset>
0

>  <Confs_cresset>
0

>  <Poses_cresset>
0

$$$$
predicted (77)
  xed2sdf           3D
 
 57 60  0  0  0  0  0  0  0  0999 V2000
   13.4780   -3.0600   21.9420 Cl  0  0  0  0  0  0  0  0  0  0  0  0
    5.7830   -7.1900   24.0600 N   0  0  0  0  0  0  0  0  0  0  0  0
    8.0700    1.0870   21.6790 O   0  0  0  0  0  0  0  0  0  0  0  0
    6.4330   -6.5030   24.7190 C   0  0  0  0  0  0  0  0  0  0  0  0
    5.9710   -0.1810   17.8460 N   0  0  0  0  0  0  0  0  0  0  0  0
    7.9700   -0.0720   22.0500 C   0  0  0  0  0  0  0  0  0  0  0  0
    6.6460   -0.6740   18.8970 C   0  0  0  0  0  0  0  0  0  0  0  0
   12.4850   -1.7980   25.6460 C   0  0  0  0  0  0  0  0  0  0  0  0
   13.0950   -2.5040   24.5940 C   0  0  0  0  0  0  0  0  0  0  0  0
    8.7850   -3.0210   23.2230 C   0  0  0  0  0  0  0  0  0  0  0  0
    7.3770   -1.8220   24.7870 C   0  0  0  0  0  0  0  0  0  0  0  0
   11.4770   -0.8500   25.3750 C   0  0  0  0  0  0  0  0  0  0  0  0
   11.5700   -1.4320   23.0390 C   0  0  0  0  0  0  0  0  0  0  0  0
    8.3730   -4.2390   23.7830 C   0  0  0  0  0  0  0  0  0  0  0  0
    6.9640   -3.0440   25.3490 C   0  0  0  0  0  0  0  0  0  0  0  0
    2.6640    1.6530   20.8960 C   0  0  0  0  0  0  0  0  0  0  0  0
    3.3840    1.1630   21.9950 C   0  0  0  0  0  0  0  0  0  0  0  0
   12.6490   -2.2930   23.2830 C   0  0  0  0  0  0  0  0  0  0  0  0
    8.3130   -1.8100   23.7470 C   0  0  0  0  0  0  0  0  0  0  0  0
   10.9850   -0.6880   24.0730 C   0  0  0  0  0  0  0  0  0  0  0  0
    7.5030   -4.2740   24.8960 C   0  0  0  0  0  0  0  0  0  0  0  0
    4.8510    0.5200   18.0960 C   0  0  0  0  0  0  0  0  0  0  0  0
    3.1560    1.4570   19.5940 C   0  0  0  0  0  0  0  0  0  0  0  0
    4.5970    0.4830   21.7990 C   0  0  0  0  0  0  0  0  0  0  0  0
    6.2530   -0.4850   20.2260 C   0  0  0  0  0  0  0  0  0  0  0  0
    4.3500    0.7430   19.3910 C   0  0  0  0  0  0  0  0  0  0  0  0
    5.0720    0.2430   20.4910 C   0  0  0  0  0  0  0  0  0  0  0  0
    8.6800   -0.5800   23.1370 N   0  0  0  0  0  0  0  0  0  0  0  0
    7.1000   -1.1120   21.3060 C   0  0  0  0  0  0  0  0  0  0  0  0
    9.7710    0.1880   23.7830 C   0  0  0  0  0  0  0  0  0  0  0  0
    8.5690   -6.3050   25.9540 C   0  0  0  0  0  0  0  0  0  0  0  0
    6.4210   -5.4800   26.9350 C   0  0  0  0  0  0  0  0  0  0  0  0
    7.2180   -5.6270   25.6090 C   0  0  0  0  0  0  0  0  0  0  0  0
    7.5420   -1.2470   18.6670 H   0  0  0  0  0  0  0  0  0  0  0  0
   12.7760   -2.0000   26.6740 H   0  0  0  0  0  0  0  0  0  0  0  0
   13.8840   -3.2300   24.7880 H   0  0  0  0  0  0  0  0  0  0  0  0
    9.4720   -3.0150   22.3820 H   0  0  0  0  0  0  0  0  0  0  0  0
    6.9740   -0.8840   25.1660 H   0  0  0  0  0  0  0  0  0  0  0  0
   11.0380   -0.2810   26.1860 H   0  0  0  0  0  0  0  0  0  0  0  0
   11.1380   -1.3870   22.0530 H   0  0  0  0  0  0  0  0  0  0  0  0
    8.7740   -5.1510   23.3570 H   0  0  0  0  0  0  0  0  0  0  0  0
    6.2480   -2.9970   26.1590 H   0  0  0  0  0  0  0  0  0  0  0  0
    1.7380    2.2010   21.0530 H   0  0  0  0  0  0  0  0  0  0  0  0
    3.0070    1.3170   23.0050 H   0  0  0  0  0  0  0  0  0  0  0  0
    4.3600    0.9300   17.2250 H   0  0  0  0  0  0  0  0  0  0  0  0
    2.6060    1.8510   18.7480 H   0  0  0  0  0  0  0  0  0  0  0  0
    5.1580    0.1530   22.6670 H   0  0  0  0  0  0  0  0  0  0  0  0
    7.7590   -1.8690   20.8600 H   0  0  0  0  0  0  0  0  0  0  0  0
    6.4560   -1.6680   22.0010 H   0  0  0  0  0  0  0  0  0  0  0  0
    9.4000    0.6270   24.7210 H   0  0  0  0  0  0  0  0  0  0  0  0
   10.0940    1.0100   23.1340 H   0  0  0  0  0  0  0  0  0  0  0  0
    9.2580   -5.5710   26.3920 H   0  0  0  0  0  0  0  0  0  0  0  0
    8.4330   -7.1130   26.6820 H   0  0  0  0  0  0  0  0  0  0  0  0
    9.0400   -6.7290   25.0600 H   0  0  0  0  0  0  0  0  0  0  0  0
    5.4820   -4.9380   26.7760 H   0  0  0  0  0  0  0  0  0  0  0  0
    6.1600   -6.4680   27.3360 H   0  0  0  0  0  0  0  0  0  0  0  0
    7.0080   -4.9560   27.7010 H   0  0  0  0  0  0  0  0  0  0  0  0
  4  2  3  0
  6  3  2  0
  7  5  2  0
  9  8  2  0
 12  8  1  0
 14 10  2  0
 15 11  1  0
 17 16  1  0
 18  1  1  0
 18  9  1  0
 18 13  2  0
 19 10  1  0
 19 11  2  0
 20 12  2  0
 20 13  1  0
 21 14  1  0
 21 15  2  0
 22  5  1  0
 23 16  2  0
 24 17  2  0
 25  7  1  0
 26 22  2  0
 26 23  1  0
 27 24  1  0
 27 25  2  0
 27 26  1  0
 28  6  1  0
 28 19  1  0
 29  6  1  0
 29 25  1  0
 30 20  1  0
 30 28  1  0
 33  4  1  0
 33 21  1  0
 33 31  1  0
 33 32  1  0
  7 34  1  0
  8 35  1  0
  9 36  1  0
 10 37  1  0
 11 38  1  0
 12 39  1  0
 13 40  1  0
 14 41  1  0
 15 42  1  0
 16 43  1  0
 17 44  1  0
 22 45  1  0
 23 46  1  0
 24 47  1  0
 29 48  1  0
 29 49  1  0
 30 50  1  0
 30 51  1  0
 31 52  1  0
 31 53  1  0
 31 54  1  0
 32 55  1  0
 32 56  1  0
 32 57  1  0
M  END
>  <Favorite_cresset>
false

>  <Protein_cresset>
sars_P

>  <MW_cresset>
454.0

>  <#Atoms_cresset>
33

>  <SlogP_cresset>
6.5

>  <TPSA_cresset>
57.0

>  <Flexibility_cresset>
5.5

>  <HBA_cresset>
4

>  <HBD_cresset>
0

>  <Rof5_cresset>
1

>  <Confs_cresset>
0

>  <Poses_cresset>
0

$$$$
predicted (78)
  xed2sdf           3D
 
 65 66  0  0  1  0  0  0  0  0999 V2000
   11.5460    2.7510   23.7670 O   0  5  0  0  0  0  0  0  0  0  0  0
    4.6460    0.9090   17.5620 O   0  0  0  0  0  0  0  0  0  0  0  0
    8.2150    1.6560   21.9010 O   0  0  0  0  0  0  0  0  0  0  0  0
    6.8640   -0.9520   23.1780 O   0  0  0  0  0  0  0  0  0  0  0  0
   11.5830    4.9220   23.1060 O   0  0  0  0  0  0  0  0  0  0  0  0
   10.9370    3.7800   23.4950 C   0  0  0  0  0  0  0  0  0  0  0  0
    4.2790    1.0150   18.7210 C   0  0  0  0  0  0  0  0  0  0  0  0
    8.7310    1.5530   23.0010 C   0  0  0  0  0  0  0  0  0  0  0  0
    7.7090   -1.1980   22.3290 C   0  0  0  0  0  0  0  0  0  0  0  0
    3.0410    1.4460   19.1420 N   0  0  0  0  0  0  0  0  0  0  0  0
    7.4220   -1.8160   21.1390 N   0  0  0  0  0  0  0  0  0  0  0  0
    9.6560    3.8290   23.5560 N   0  0  0  0  0  0  0  0  0  0  0  0
    9.3360    0.3280   23.3470 N   0  0  0  0  0  0  0  0  0  0  0  0
   13.0130    4.9810   23.1540 C   0  0  0  0  0  0  0  0  0  0  0  0
    6.6440    3.8940   22.8260 C   0  0  0  0  0  0  0  0  0  0  0  0
    7.5000    4.7860   25.0200 C   0  0  0  0  0  0  0  0  0  0  0  0
    6.2990    2.5740   24.9590 C   0  0  0  0  0  0  0  0  0  0  0  0
    2.8870    1.3530   20.5890 C   0  0  0  0  0  0  0  0  0  0  0  0
    3.9590    0.3360   20.9870 C   0  0  0  0  0  0  0  0  0  0  0  0
    5.9310   -0.7050   19.4930 C   0  0  0  0  0  0  0  0  0  0  0  0
   12.3560   -1.2070   23.6420 C   0  0  0  0  0  0  0  0  0  0  0  0
   10.1770   -0.0700   24.4910 C   0  0  0  0  0  0  0  0  0  0  0  0
    7.3050    3.4760   24.1870 C   0  0  0  0  0  0  0  0  0  0  0  0
   10.0040   -2.0100   22.9760 C   0  0  0  0  0  0  0  0  0  0  0  0
    5.6920   -3.1430   20.0830 C   0  0  0  0  0  0  0  0  0  0  0  0
    5.0660    0.5260   19.9150 C   0  0  0  0  0  0  0  0  0  0  0  0
    6.0810   -1.7880   20.5860 C   0  0  0  0  0  0  0  0  0  0  0  0
   10.8780   -1.4130   24.1000 C   0  0  0  0  0  0  0  0  0  0  0  0
    8.7280    2.7510   24.0130 C   0  0  0  0  0  0  0  0  0  0  0  0
    9.1800   -0.8240   22.4520 C   0  0  0  0  0  0  0  0  0  0  0  0
    5.2240   -4.0560   20.8570 N   0  0  0  0  0  0  0  0  0  0  0  0
   13.1480   -0.9160   24.6960 F   0  0  0  0  0  0  0  0  0  0  0  0
   12.8570   -2.3240   23.0660 F   0  0  0  0  0  0  0  0  0  0  0  0
   12.4680   -0.1980   22.7580 F   0  0  0  0  0  0  0  0  0  0  0  0
    2.2920    1.6600   18.4970 H   0  0  0  0  0  0  0  0  0  0  0  0
    8.1900   -2.0380   20.5170 H   0  0  0  0  0  0  0  0  0  0  0  0
   13.4530    4.1040   22.6660 H   0  0  0  0  0  0  0  0  0  0  0  0
   13.3430    5.0160   24.1960 H   0  0  0  0  0  0  0  0  0  0  0  0
   13.3640    5.8820   22.6410 H   0  0  0  0  0  0  0  0  0  0  0  0
    5.9090    4.7000   22.9570 H   0  0  0  0  0  0  0  0  0  0  0  0
    6.1130    3.0530   22.3620 H   0  0  0  0  0  0  0  0  0  0  0  0
    7.3940    4.2530   22.1100 H   0  0  0  0  0  0  0  0  0  0  0  0
    6.5520    5.1830   25.3960 H   0  0  0  0  0  0  0  0  0  0  0  0
    8.1550    4.6160   25.8790 H   0  0  0  0  0  0  0  0  0  0  0  0
    7.9490    5.5850   24.4180 H   0  0  0  0  0  0  0  0  0  0  0  0
    5.3080    3.0430   25.0290 H   0  0  0  0  0  0  0  0  0  0  0  0
    6.6350    2.3850   25.9840 H   0  0  0  0  0  0  0  0  0  0  0  0
    6.1700    1.6100   24.4590 H   0  0  0  0  0  0  0  0  0  0  0  0
    1.8960    1.0030   20.8920 H   0  0  0  0  0  0  0  0  0  0  0  0
    3.0850    2.3390   21.0280 H   0  0  0  0  0  0  0  0  0  0  0  0
    3.5160   -0.6600   20.8960 H   0  0  0  0  0  0  0  0  0  0  0  0
    4.3280    0.4730   22.0130 H   0  0  0  0  0  0  0  0  0  0  0  0
    5.4810   -1.1900   18.6130 H   0  0  0  0  0  0  0  0  0  0  0  0
    6.9160   -0.3470   19.1530 H   0  0  0  0  0  0  0  0  0  0  0  0
    9.5440   -0.2480   25.3660 H   0  0  0  0  0  0  0  0  0  0  0  0
   10.9110    0.6970   24.7360 H   0  0  0  0  0  0  0  0  0  0  0  0
    9.3670   -2.8030   23.3980 H   0  0  0  0  0  0  0  0  0  0  0  0
   10.5850   -2.4480   22.1510 H   0  0  0  0  0  0  0  0  0  0  0  0
    5.9250   -3.3620   19.0420 H   0  0  0  0  0  0  0  0  0  0  0  0
    5.7060    1.3420   20.2610 H   0  0  0  0  0  0  0  0  0  0  0  0
    5.4020   -1.5580   21.4050 H   0  0  0  0  0  0  0  0  0  0  0  0
   10.8830   -2.1000   24.9570 H   0  0  0  0  0  0  0  0  0  0  0  0
    9.0410    2.3620   24.9910 H   0  0  0  0  0  0  0  0  0  0  0  0
    9.5530   -0.5470   21.4560 H   0  0  0  0  0  0  0  0  0  0  0  0
    5.0760   -3.7080   21.8120 H   0  0  0  0  0  0  0  0  0  0  0  0
  6  1  1  0
  6  5  1  0
  7  2  2  0
  8  3  2  0
  9  4  2  0
 10  7  1  0
 11  9  1  0
 12  6  2  0
 13  8  1  0
 14  5  1  0
 18 10  1  0
 19 18  1  0
 22 13  1  0
 23 15  1  0
 23 16  1  0
 23 17  1  0
 26  7  1  0
 26 19  1  0
 26 20  1  0
 27 11  1  0
 27 20  1  0
 27 25  1  0
 28 21  1  0
 28 22  1  0
 28 24  1  0
 29  8  1  0
 29 12  1  0
 29 23  1  0
 30  9  1  0
 30 13  1  0
 30 24  1  0
 31 25  2  0
 32 21  1  0
 33 21  1  0
 34 21  1  0
 10 35  1  0
 11 36  1  0
 14 37  1  0
 14 38  1  0
 14 39  1  0
 15 40  1  0
 15 41  1  0
 15 42  1  0
 16 43  1  0
 16 44  1  0
 16 45  1  0
 17 46  1  0
 17 47  1  0
 17 48  1  0
 18 49  1  0
 18 50  1  0
 19 51  1  0
 19 52  1  0
 20 53  1  0
 20 54  1  0
 22 55  1  0
 22 56  1  0
 24 57  1  0
 24 58  1  0
 25 59  1  0
 26 60  1  0
 27 61  1  0
 28 62  1  0
 29 63  1  0
 30 64  1  0
 31 65  1  0
M  CHG  1   1  -1
M  END
>  <Favorite_cresset>
false

>  <Protein_cresset>
sars_P

>  <MW_cresset>
490.5

>  <#Atoms_cresset>
34

>  <SlogP_cresset>
1.4

>  <TPSA_cresset>
147.0

>  <Flexibility_cresset>
8.8

>  <HBA_cresset>
10

>  <HBD_cresset>
3

>  <Rof5_cresset>
0

>  <Confs_cresset>
0

>  <Poses_cresset>
0

$$$$
predicted (79)
  xed2sdf           3D
 
 40 42  0  0  0  0  0  0  0  0999 V2000
    7.5340    1.3200   21.8970 O   0  0  0  0  0  0  0  0  0  0  0  0
    6.1340    0.0710   17.5060 N   0  0  0  0  0  0  0  0  0  0  0  0
    7.9660    0.1840   21.7830 C   0  0  0  0  0  0  0  0  0  0  0  0
    6.7910   -0.4450   18.5610 C   0  0  0  0  0  0  0  0  0  0  0  0
    2.7400    1.8010   20.5020 C   0  0  0  0  0  0  0  0  0  0  0  0
    3.4370    1.2990   21.6060 C   0  0  0  0  0  0  0  0  0  0  0  0
    4.9920    0.7400   17.7360 C   0  0  0  0  0  0  0  0  0  0  0  0
    3.2390    1.5800   19.2180 C   0  0  0  0  0  0  0  0  0  0  0  0
    4.6070    0.5460   21.4180 C   0  0  0  0  0  0  0  0  0  0  0  0
    6.3500   -0.3200   19.8790 C   0  0  0  0  0  0  0  0  0  0  0  0
    4.4390    0.8830   19.0180 C   0  0  0  0  0  0  0  0  0  0  0  0
    5.1290    0.3500   20.1240 C   0  0  0  0  0  0  0  0  0  0  0  0
    9.2030   -0.1730   22.3020 N   0  0  0  0  0  0  0  0  0  0  0  0
    7.2330   -0.9020   20.9650 C   0  0  0  0  0  0  0  0  0  0  0  0
   13.1580   -1.5030   23.5290 C   0  0  0  0  0  0  0  0  0  0  0  0
    9.3080   -1.4670   22.9940 C   0  0  0  0  0  0  0  0  0  0  0  0
   10.0800    0.8770   22.8840 C   0  0  0  0  0  0  0  0  0  0  0  0
   10.7410   -1.9870   23.0300 C   0  0  0  0  0  0  0  0  0  0  0  0
   11.5160    0.4410   23.2860 C   0  0  0  0  0  0  0  0  0  0  0  0
   11.7000   -1.0260   23.7410 C   0  0  0  0  0  0  0  0  0  0  0  0
    7.7330   -0.9520   18.3510 H   0  0  0  0  0  0  0  0  0  0  0  0
    1.8260    2.3730   20.6410 H   0  0  0  0  0  0  0  0  0  0  0  0
    3.0790    1.5090   22.6080 H   0  0  0  0  0  0  0  0  0  0  0  0
    4.5550    1.2330   16.8700 H   0  0  0  0  0  0  0  0  0  0  0  0
    2.7060    1.9850   18.3800 H   0  0  0  0  0  0  0  0  0  0  0  0
    5.1170    0.1560   22.2930 H   0  0  0  0  0  0  0  0  0  0  0  0
    7.9750   -1.5710   20.4990 H   0  0  0  0  0  0  0  0  0  0  0  0
    6.6490   -1.5290   21.6450 H   0  0  0  0  0  0  0  0  0  0  0  0
   13.8730   -0.7140   23.7740 H   0  0  0  0  0  0  0  0  0  0  0  0
   13.3500   -1.8070   22.4940 H   0  0  0  0  0  0  0  0  0  0  0  0
   13.3670   -2.3710   24.1600 H   0  0  0  0  0  0  0  0  0  0  0  0
    8.6930   -2.2230   22.5050 H   0  0  0  0  0  0  0  0  0  0  0  0
    8.9290   -1.3580   24.0180 H   0  0  0  0  0  0  0  0  0  0  0  0
    9.6270    1.2640   23.8030 H   0  0  0  0  0  0  0  0  0  0  0  0
   10.1440    1.7120   22.1720 H   0  0  0  0  0  0  0  0  0  0  0  0
   10.7610   -2.9410   23.5650 H   0  0  0  0  0  0  0  0  0  0  0  0
   11.0650   -2.1830   22.0000 H   0  0  0  0  0  0  0  0  0  0  0  0
   11.8110    1.0840   24.1240 H   0  0  0  0  0  0  0  0  0  0  0  0
   12.2250    0.6770   22.4910 H   0  0  0  0  0  0  0  0  0  0  0  0
   11.4840   -1.0500   24.8190 H   0  0  0  0  0  0  0  0  0  0  0  0
  3  1  2  0
  4  2  2  0
  6  5  1  0
  7  2  1  0
  8  5  2  0
  9  6  2  0
 10  4  1  0
 11  7  2  0
 11  8  1  0
 12  9  1  0
 12 10  2  0
 12 11  1  0
 13  3  1  0
 14  3  1  0
 14 10  1  0
 16 13  1  0
 17 13  1  0
 18 16  1  0
 19 17  1  0
 20 15  1  0
 20 18  1  0
 20 19  1  0
  4 21  1  0
  5 22  1  0
  6 23  1  0
  7 24  1  0
  8 25  1  0
  9 26  1  0
 14 27  1  0
 14 28  1  0
 15 29  1  0
 15 30  1  0
 15 31  1  0
 16 32  1  0
 16 33  1  0
 17 34  1  0
 17 35  1  0
 18 36  1  0
 18 37  1  0
 19 38  1  0
 19 39  1  0
 20 40  1  0
M  END
>  <Favorite_cresset>
false

>  <Protein_cresset>
sars_P

>  <MW_cresset>
268.4

>  <#Atoms_cresset>
20

>  <SlogP_cresset>
3.0

>  <TPSA_cresset>
33.2

>  <Flexibility_cresset>
3.2

>  <HBA_cresset>
3

>  <HBD_cresset>
0

>  <Rof5_cresset>
0

>  <Confs_cresset>
0

>  <Poses_cresset>
0

$$$$
predicted (80)
  xed2sdf           3D
 
 59 64  0  0  1  0  0  0  0  0999 V2000
   10.2510    3.0890   23.9200 O   0  0  0  0  0  0  0  0  0  0  0  0
    8.5690    1.1220   21.5740 O   0  0  0  0  0  0  0  0  0  0  0  0
    6.1180   -0.3150   17.9920 N   0  0  0  0  0  0  0  0  0  0  0  0
    4.9600    4.1550   23.4240 N   0  0  0  0  0  0  0  0  0  0  0  0
    9.9130    1.9230   24.0230 C   0  0  0  0  0  0  0  0  0  0  0  0
    8.2120    0.0570   22.0330 C   0  0  0  0  0  0  0  0  0  0  0  0
    5.9980    4.4320   22.6510 C   0  0  0  0  0  0  0  0  0  0  0  0
    6.7970   -0.6790   19.0950 C   0  0  0  0  0  0  0  0  0  0  0  0
   13.1320   -0.0080   23.4980 C   0  0  0  0  0  0  0  0  0  0  0  0
   12.2300    1.0390   23.6880 C   0  0  0  0  0  0  0  0  0  0  0  0
   11.2630   -1.5470   23.1760 C   0  0  0  0  0  0  0  0  0  0  0  0
    2.7150    1.6960   20.8030 C   0  0  0  0  0  0  0  0  0  0  0  0
    3.4280    1.3460   21.9580 C   0  0  0  0  0  0  0  0  0  0  0  0
    7.1830    3.9120   23.2230 C   0  0  0  0  0  0  0  0  0  0  0  0
   12.6430   -1.2970   23.2570 C   0  0  0  0  0  0  0  0  0  0  0  0
   10.8450    0.8030   23.6420 C   0  0  0  0  0  0  0  0  0  0  0  0
   10.3400   -0.4830   23.3430 C   0  0  0  0  0  0  0  0  0  0  0  0
    4.9840    0.3920   18.1540 C   0  0  0  0  0  0  0  0  0  0  0  0
    3.2260    1.3860   19.5340 C   0  0  0  0  0  0  0  0  0  0  0  0
    4.6610    0.6850   21.8440 C   0  0  0  0  0  0  0  0  0  0  0  0
    6.3900   -0.3380   20.3950 C   0  0  0  0  0  0  0  0  0  0  0  0
    6.8450    3.2420   24.3570 C   0  0  0  0  0  0  0  0  0  0  0  0
    4.4590    0.7250   19.4150 C   0  0  0  0  0  0  0  0  0  0  0  0
    5.1790    0.3630   20.5690 C   0  0  0  0  0  0  0  0  0  0  0  0
    7.2080   -0.7030   21.4870 N   0  0  0  0  0  0  0  0  0  0  0  0
    8.6730    1.5370   24.5410 N   0  0  0  0  0  0  0  0  0  0  0  0
    5.4730    3.4450   24.4840 N   0  0  0  0  0  0  0  0  0  0  0  0
    7.8160    2.5060   25.2700 C   0  0  0  0  0  0  0  0  0  0  0  0
    4.5840    3.0880   25.5910 C   0  0  0  0  0  0  0  0  0  0  0  0
    7.8830   -2.8790   24.3810 C   0  0  0  0  0  0  0  0  0  0  0  0
    7.0300   -1.9650   22.1600 C   0  0  0  0  0  0  0  0  0  0  0  0
    8.2450    0.1150   24.5220 C   0  0  0  0  0  0  0  0  0  0  0  0
    8.2490   -2.1060   23.0860 C   0  0  0  0  0  0  0  0  0  0  0  0
    8.8030   -0.6370   23.2760 C   0  0  0  0  0  0  0  0  0  0  0  0
   13.5170   -2.3150   23.1340 F   0  0  0  0  0  0  0  0  0  0  0  0
    5.8550    4.9940   21.7370 H   0  0  0  0  0  0  0  0  0  0  0  0
    7.7050   -1.2530   18.9300 H   0  0  0  0  0  0  0  0  0  0  0  0
   14.2000    0.1840   23.5420 H   0  0  0  0  0  0  0  0  0  0  0  0
   12.6070    2.0350   23.8990 H   0  0  0  0  0  0  0  0  0  0  0  0
   10.9590   -2.5700   22.9830 H   0  0  0  0  0  0  0  0  0  0  0  0
    1.7500    2.1830   20.8950 H   0  0  0  0  0  0  0  0  0  0  0  0
    3.0170    1.5750   22.9390 H   0  0  0  0  0  0  0  0  0  0  0  0
    8.1780    4.0290   22.8140 H   0  0  0  0  0  0  0  0  0  0  0  0
    4.4750    0.6970   17.2460 H   0  0  0  0  0  0  0  0  0  0  0  0
    2.6600    1.6510   18.6500 H   0  0  0  0  0  0  0  0  0  0  0  0
    5.1950    0.4130   22.7480 H   0  0  0  0  0  0  0  0  0  0  0  0
    8.4760    3.2470   25.7450 H   0  0  0  0  0  0  0  0  0  0  0  0
    7.2880    1.9770   26.0760 H   0  0  0  0  0  0  0  0  0  0  0  0
    3.5370    3.1600   25.2640 H   0  0  0  0  0  0  0  0  0  0  0  0
    4.7420    3.7900   26.4170 H   0  0  0  0  0  0  0  0  0  0  0  0
    4.7930    2.0670   25.9240 H   0  0  0  0  0  0  0  0  0  0  0  0
    6.9430   -2.5020   24.8110 H   0  0  0  0  0  0  0  0  0  0  0  0
    8.6810   -2.7880   25.1290 H   0  0  0  0  0  0  0  0  0  0  0  0
    7.7470   -3.9470   24.1630 H   0  0  0  0  0  0  0  0  0  0  0  0
    6.1020   -1.9140   22.7400 H   0  0  0  0  0  0  0  0  0  0  0  0
    6.9740   -2.7810   21.4290 H   0  0  0  0  0  0  0  0  0  0  0  0
    7.1520    0.0540   24.5420 H   0  0  0  0  0  0  0  0  0  0  0  0
    8.6350   -0.3600   25.4290 H   0  0  0  0  0  0  0  0  0  0  0  0
    8.9620   -2.7000   22.5000 H   0  0  0  0  0  0  0  0  0  0  0  0
  5  1  2  0
  6  2  2  0
  7  4  2  0
  8  3  2  0
 10  9  1  0
 13 12  1  0
 14  7  1  0
 15  9  2  0
 15 11  1  0
 16  5  1  0
 16 10  2  0
 17 11  2  0
 17 16  1  0
 18  3  1  0
 19 12  2  0
 20 13  2  0
 21  8  1  0
 22 14  2  0
 23 18  2  0
 23 19  1  0
 24 20  1  0
 24 21  2  0
 24 23  1  0
 25  6  1  0
 25 21  1  0
 26  5  1  0
 27  4  1  0
 27 22  1  0
 28 22  1  0
 28 26  1  0
 29 27  1  0
 31 25  1  0
 32 26  1  0
 33 30  1  0
 33 31  1  0
 34  6  1  0
 34 17  1  0
 34 32  1  0
 34 33  1  0
 35 15  1  0
  7 36  1  0
  8 37  1  0
  9 38  1  0
 10 39  1  0
 11 40  1  0
 12 41  1  0
 13 42  1  0
 14 43  1  0
 18 44  1  0
 19 45  1  0
 20 46  1  0
 28 47  1  0
 28 48  1  0
 29 49  1  0
 29 50  1  0
 29 51  1  0
 30 52  1  0
 30 53  1  0
 30 54  1  0
 31 55  1  0
 31 56  1  0
 32 57  1  0
 32 58  1  0
 33 59  1  0
M  END
>  <Favorite_cresset>
false

>  <Protein_cresset>
sars_P

>  <MW_cresset>
469.5

>  <#Atoms_cresset>
35

>  <SlogP_cresset>
4.0

>  <TPSA_cresset>
71.3

>  <Flexibility_cresset>
2.9

>  <HBA_cresset>
7

>  <HBD_cresset>
0

>  <Rof5_cresset>
0

>  <Confs_cresset>
0

>  <Poses_cresset>
0

$$$$
predicted (81)
  xed2sdf           3D
 
 58 63  0  0  1  0  0  0  0  0999 V2000
   10.3420    3.4090   23.7480 O   0  0  0  0  0  0  0  0  0  0  0  0
    8.4630    1.4000   21.5070 O   0  0  0  0  0  0  0  0  0  0  0  0
    5.5420    3.5540   23.9550 N   0  0  0  0  0  0  0  0  0  0  0  0
    6.1350   -0.2250   17.8600 N   0  0  0  0  0  0  0  0  0  0  0  0
    6.1830    5.1630   22.4320 O   0  0  0  0  0  0  0  0  0  0  0  0
    9.9900    2.2430   23.8460 C   0  0  0  0  0  0  0  0  0  0  0  0
    8.2530    0.2740   21.9020 C   0  0  0  0  0  0  0  0  0  0  0  0
    5.1740    4.4780   23.0720 C   0  0  0  0  0  0  0  0  0  0  0  0
    6.8520   -0.5770   18.9420 C   0  0  0  0  0  0  0  0  0  0  0  0
    6.9070    3.5860   23.8830 C   0  0  0  0  0  0  0  0  0  0  0  0
    7.2650    4.5700   22.9960 C   0  0  0  0  0  0  0  0  0  0  0  0
   13.2250    0.3160   23.4650 C   0  0  0  0  0  0  0  0  0  0  0  0
   12.3080    1.3540   23.6400 C   0  0  0  0  0  0  0  0  0  0  0  0
   11.3830   -1.2300   23.1030 C   0  0  0  0  0  0  0  0  0  0  0  0
    2.8050    1.7750   20.7710 C   0  0  0  0  0  0  0  0  0  0  0  0
    3.5700    1.4370   21.8960 C   0  0  0  0  0  0  0  0  0  0  0  0
   12.7580   -0.9800   23.2300 C   0  0  0  0  0  0  0  0  0  0  0  0
   10.9300    1.1150   23.5280 C   0  0  0  0  0  0  0  0  0  0  0  0
   10.4390   -0.1770   23.2200 C   0  0  0  0  0  0  0  0  0  0  0  0
    4.9980    0.4740   18.0510 C   0  0  0  0  0  0  0  0  0  0  0  0
    3.2830    1.4700   19.4900 C   0  0  0  0  0  0  0  0  0  0  0  0
    4.8030    0.7830   21.7480 C   0  0  0  0  0  0  0  0  0  0  0  0
    6.4840   -0.2300   20.2500 C   0  0  0  0  0  0  0  0  0  0  0  0
    4.5120    0.8050   19.3300 C   0  0  0  0  0  0  0  0  0  0  0  0
    5.2720    0.4570   20.4600 C   0  0  0  0  0  0  0  0  0  0  0  0
    7.3390   -0.5660   21.3220 N   0  0  0  0  0  0  0  0  0  0  0  0
    8.7230    1.8700   24.2900 N   0  0  0  0  0  0  0  0  0  0  0  0
    3.7500    4.9480   22.9310 C   0  0  0  0  0  0  0  0  0  0  0  0
    7.8180    2.8840   24.8660 C   0  0  0  0  0  0  0  0  0  0  0  0
    8.1020   -2.6240   24.3000 C   0  0  0  0  0  0  0  0  0  0  0  0
    7.1910   -1.7970   22.0630 C   0  0  0  0  0  0  0  0  0  0  0  0
    8.3060    0.4350   24.3540 C   0  0  0  0  0  0  0  0  0  0  0  0
    8.3980   -1.8400   23.0050 C   0  0  0  0  0  0  0  0  0  0  0  0
    8.8960   -0.3580   23.1480 C   0  0  0  0  0  0  0  0  0  0  0  0
   13.6330   -2.0020   23.1390 F   0  0  0  0  0  0  0  0  0  0  0  0
    7.7640   -1.1460   18.7590 H   0  0  0  0  0  0  0  0  0  0  0  0
    8.2360    4.9870   22.7430 H   0  0  0  0  0  0  0  0  0  0  0  0
   14.2880    0.5080   23.5530 H   0  0  0  0  0  0  0  0  0  0  0  0
   12.6700    2.3420   23.9100 H   0  0  0  0  0  0  0  0  0  0  0  0
   11.0780   -2.2550   22.9380 H   0  0  0  0  0  0  0  0  0  0  0  0
    1.8420    2.2660   20.8900 H   0  0  0  0  0  0  0  0  0  0  0  0
    3.1960    1.6610   22.8870 H   0  0  0  0  0  0  0  0  0  0  0  0
    4.4890    0.7950   17.1490 H   0  0  0  0  0  0  0  0  0  0  0  0
    2.6780    1.7090   18.6300 H   0  0  0  0  0  0  0  0  0  0  0  0
    5.3680    0.5090   22.6360 H   0  0  0  0  0  0  0  0  0  0  0  0
    3.0920    4.3770   23.5980 H   0  0  0  0  0  0  0  0  0  0  0  0
    3.3680    4.8470   21.9100 H   0  0  0  0  0  0  0  0  0  0  0  0
    3.6560    6.0040   23.2060 H   0  0  0  0  0  0  0  0  0  0  0  0
    7.2250    2.4020   25.6540 H   0  0  0  0  0  0  0  0  0  0  0  0
    8.4290    3.6630   25.3420 H   0  0  0  0  0  0  0  0  0  0  0  0
    7.0840   -2.4280   24.6580 H   0  0  0  0  0  0  0  0  0  0  0  0
    8.7980   -2.3740   25.1090 H   0  0  0  0  0  0  0  0  0  0  0  0
    8.1830   -3.6990   24.0980 H   0  0  0  0  0  0  0  0  0  0  0  0
    6.2570   -1.7560   22.6290 H   0  0  0  0  0  0  0  0  0  0  0  0
    7.1810   -2.6590   21.3880 H   0  0  0  0  0  0  0  0  0  0  0  0
    7.2090    0.3690   24.3580 H   0  0  0  0  0  0  0  0  0  0  0  0
    8.6910    0.0000   25.2880 H   0  0  0  0  0  0  0  0  0  0  0  0
    9.1290   -2.4000   22.4200 H   0  0  0  0  0  0  0  0  0  0  0  0
  6  1  2  0
  7  2  2  0
  8  3  2  0
  8  5  1  0
  9  4  2  0
 10  3  1  0
 11  5  1  0
 11 10  2  0
 13 12  1  0
 16 15  1  0
 17 12  2  0
 17 14  1  0
 18  6  1  0
 18 13  2  0
 19 14  2  0
 19 18  1  0
 20  4  1  0
 21 15  2  0
 22 16  2  0
 23  9  1  0
 24 20  2  0
 24 21  1  0
 25 22  1  0
 25 23  2  0
 25 24  1  0
 26  7  1  0
 26 23  1  0
 27  6  1  0
 28  8  1  0
 29 10  1  0
 29 27  1  0
 31 26  1  0
 32 27  1  0
 33 30  1  0
 33 31  1  0
 34  7  1  0
 34 19  1  0
 34 32  1  0
 34 33  1  0
 35 17  1  0
  9 36  1  0
 11 37  1  0
 12 38  1  0
 13 39  1  0
 14 40  1  0
 15 41  1  0
 16 42  1  0
 20 43  1  0
 21 44  1  0
 22 45  1  0
 28 46  1  0
 28 47  1  0
 28 48  1  0
 29 49  1  0
 29 50  1  0
 30 51  1  0
 30 52  1  0
 30 53  1  0
 31 54  1  0
 31 55  1  0
 32 56  1  0
 32 57  1  0
 33 58  1  0
M  END
>  <Favorite_cresset>
false

>  <Protein_cresset>
sars_P

>  <MW_cresset>
470.5

>  <#Atoms_cresset>
35

>  <SlogP_cresset>
3.9

>  <TPSA_cresset>
79.5

>  <Flexibility_cresset>
2.9

>  <HBA_cresset>
7

>  <HBD_cresset>
0

>  <Rof5_cresset>
0

>  <Confs_cresset>
0

>  <Poses_cresset>
0

$$$$
predicted (82)
  xed2sdf           3D
 
 55 60  0  0  1  0  0  0  0  0999 V2000
   10.4120    3.1320   23.7150 O   0  0  0  0  0  0  0  0  0  0  0  0
    8.5210    1.1850   21.4630 O   0  0  0  0  0  0  0  0  0  0  0  0
    7.6140    4.5370   23.0320 N   0  0  0  0  0  0  0  0  0  0  0  0
    6.1260   -0.1090   17.8090 N   0  0  0  0  0  0  0  0  0  0  0  0
    6.0110    2.8920   23.0530 O   0  0  0  0  0  0  0  0  0  0  0  0
   10.0450    1.9700   23.8220 C   0  0  0  0  0  0  0  0  0  0  0  0
    8.2660    0.0640   21.8410 C   0  0  0  0  0  0  0  0  0  0  0  0
    7.1730    3.3970   23.5670 C   0  0  0  0  0  0  0  0  0  0  0  0
    6.7050    4.8010   22.0370 C   0  0  0  0  0  0  0  0  0  0  0  0
    6.8260   -0.5390   18.8800 C   0  0  0  0  0  0  0  0  0  0  0  0
    5.7690    3.8070   22.0850 C   0  0  0  0  0  0  0  0  0  0  0  0
   13.2340   -0.0460   23.4690 C   0  0  0  0  0  0  0  0  0  0  0  0
   12.3420    1.0170   23.6380 C   0  0  0  0  0  0  0  0  0  0  0  0
   11.3510   -1.5300   23.0540 C   0  0  0  0  0  0  0  0  0  0  0  0
    2.6960    1.6100   20.7780 C   0  0  0  0  0  0  0  0  0  0  0  0
    3.4140    1.1500   21.8890 C   0  0  0  0  0  0  0  0  0  0  0  0
   12.7330   -1.3250   23.2050 C   0  0  0  0  0  0  0  0  0  0  0  0
   10.9580    0.8240   23.4940 C   0  0  0  0  0  0  0  0  0  0  0  0
   10.4360   -0.4490   23.1520 C   0  0  0  0  0  0  0  0  0  0  0  0
    4.9770    0.5680   18.0220 C   0  0  0  0  0  0  0  0  0  0  0  0
    3.2110    1.4210   19.4920 C   0  0  0  0  0  0  0  0  0  0  0  0
    4.6480    0.5040   21.7150 C   0  0  0  0  0  0  0  0  0  0  0  0
    6.4210   -0.3240   20.2040 C   0  0  0  0  0  0  0  0  0  0  0  0
    4.4470    0.7730   19.3070 C   0  0  0  0  0  0  0  0  0  0  0  0
    5.1740    0.3160   20.4250 C   0  0  0  0  0  0  0  0  0  0  0  0
    7.2820   -0.7200   21.2680 N   0  0  0  0  0  0  0  0  0  0  0  0
    8.7730    1.6110   24.2650 N   0  0  0  0  0  0  0  0  0  0  0  0
    7.8340    2.6580   24.7130 C   0  0  0  0  0  0  0  0  0  0  0  0
    8.0540   -2.9340   24.1310 C   0  0  0  0  0  0  0  0  0  0  0  0
    7.1220   -1.9780   21.9700 C   0  0  0  0  0  0  0  0  0  0  0  0
    8.3210    0.1830   24.3000 C   0  0  0  0  0  0  0  0  0  0  0  0
    8.3450   -2.0770   22.8850 C   0  0  0  0  0  0  0  0  0  0  0  0
    8.8870   -0.6080   23.0790 C   0  0  0  0  0  0  0  0  0  0  0  0
   13.5870   -2.3690   23.1060 F   0  0  0  0  0  0  0  0  0  0  0  0
    6.7870    5.6650   21.3820 H   0  0  0  0  0  0  0  0  0  0  0  0
    7.7560   -1.0690   18.6740 H   0  0  0  0  0  0  0  0  0  0  0  0
    4.8810    3.6490   21.4850 H   0  0  0  0  0  0  0  0  0  0  0  0
   14.3020    0.1230   23.5550 H   0  0  0  0  0  0  0  0  0  0  0  0
   12.7150    1.9880   23.9400 H   0  0  0  0  0  0  0  0  0  0  0  0
   11.0180   -2.5500   22.9030 H   0  0  0  0  0  0  0  0  0  0  0  0
    1.7370    2.1060   20.9060 H   0  0  0  0  0  0  0  0  0  0  0  0
    3.0190    1.2990   22.8870 H   0  0  0  0  0  0  0  0  0  0  0  0
    4.5060    0.9880   17.1370 H   0  0  0  0  0  0  0  0  0  0  0  0
    2.6450    1.7670   18.6410 H   0  0  0  0  0  0  0  0  0  0  0  0
    5.1870    0.1530   22.5890 H   0  0  0  0  0  0  0  0  0  0  0  0
    8.3960    3.3810   25.3200 H   0  0  0  0  0  0  0  0  0  0  0  0
    7.0680    2.2010   25.3520 H   0  0  0  0  0  0  0  0  0  0  0  0
    7.0300   -2.7600   24.4840 H   0  0  0  0  0  0  0  0  0  0  0  0
    8.7490   -2.7380   24.9570 H   0  0  0  0  0  0  0  0  0  0  0  0
    8.1320   -3.9910   23.8420 H   0  0  0  0  0  0  0  0  0  0  0  0
    6.1990   -1.9610   22.5620 H   0  0  0  0  0  0  0  0  0  0  0  0
    7.0980   -2.8160   21.2650 H   0  0  0  0  0  0  0  0  0  0  0  0
    7.2230    0.1400   24.2950 H   0  0  0  0  0  0  0  0  0  0  0  0
    8.6940   -0.2660   25.2300 H   0  0  0  0  0  0  0  0  0  0  0  0
    9.0560   -2.6130   22.2560 H   0  0  0  0  0  0  0  0  0  0  0  0
  6  1  2  0
  7  2  2  0
  8  3  2  0
  8  5  1  0
  9  3  1  0
 10  4  2  0
 11  5  1  0
 11  9  2  0
 13 12  1  0
 16 15  1  0
 17 12  2  0
 17 14  1  0
 18  6  1  0
 18 13  2  0
 19 14  2  0
 19 18  1  0
 20  4  1  0
 21 15  2  0
 22 16  2  0
 23 10  1  0
 24 20  2  0
 24 21  1  0
 25 22  1  0
 25 23  2  0
 25 24  1  0
 26  7  1  0
 26 23  1  0
 27  6  1  0
 28  8  1  0
 28 27  1  0
 30 26  1  0
 31 27  1  0
 32 29  1  0
 32 30  1  0
 33  7  1  0
 33 19  1  0
 33 31  1  0
 33 32  1  0
 34 17  1  0
  9 35  1  0
 10 36  1  0
 11 37  1  0
 12 38  1  0
 13 39  1  0
 14 40  1  0
 15 41  1  0
 16 42  1  0
 20 43  1  0
 21 44  1  0
 22 45  1  0
 28 46  1  0
 28 47  1  0
 29 48  1  0
 29 49  1  0
 29 50  1  0
 30 51  1  0
 30 52  1  0
 31 53  1  0
 31 54  1  0
 32 55  1  0
M  END
>  <Favorite_cresset>
false

>  <Protein_cresset>
sars_P

>  <MW_cresset>
456.5

>  <#Atoms_cresset>
34

>  <SlogP_cresset>
3.6

>  <TPSA_cresset>
79.5

>  <Flexibility_cresset>
2.9

>  <HBA_cresset>
7

>  <HBD_cresset>
0

>  <Rof5_cresset>
0

>  <Confs_cresset>
0

>  <Poses_cresset>
0

$$$$
predicted (83)
  xed2sdf           3D
 
 71 76  0  0  1  0  0  0  0  0999 V2000
  -14.0890   -3.1810  -21.8740 Cl  0  0  0  0  0  0  0  0  0  0  0  0
  -10.7650    2.1560  -24.0450 O   0  0  0  0  0  0  0  0  0  0  0  0
   -8.9950    0.0820  -21.2150 O   0  0  0  0  0  0  0  0  0  0  0  0
   -6.1090   -0.9420  -18.0110 N   0  0  0  0  0  0  0  0  0  0  0  0
   -5.7710    6.3450  -23.7560 O   0  0  0  0  0  0  0  0  0  0  0  0
  -10.3450    1.0120  -23.9880 C   0  0  0  0  0  0  0  0  0  0  0  0
   -8.5360   -0.8810  -21.7970 C   0  0  0  0  0  0  0  0  0  0  0  0
   -6.8320   -1.3970  -19.0510 C   0  0  0  0  0  0  0  0  0  0  0  0
  -13.4930   -0.8510  -23.0790 C   0  0  0  0  0  0  0  0  0  0  0  0
  -12.6200    0.1150  -23.5680 C   0  0  0  0  0  0  0  0  0  0  0  0
  -11.5980   -2.3130  -22.5990 C   0  0  0  0  0  0  0  0  0  0  0  0
   -2.9380    1.1070  -21.0060 C   0  0  0  0  0  0  0  0  0  0  0  0
   -3.6400    0.5950  -22.1080 C   0  0  0  0  0  0  0  0  0  0  0  0
  -12.9810   -2.0500  -22.5870 C   0  0  0  0  0  0  0  0  0  0  0  0
  -11.2290   -0.1140  -23.5510 C   0  0  0  0  0  0  0  0  0  0  0  0
  -10.6860   -1.3450  -23.0900 C   0  0  0  0  0  0  0  0  0  0  0  0
   -5.0210   -0.1870  -18.2340 C   0  0  0  0  0  0  0  0  0  0  0  0
   -3.4200    0.8840  -19.7100 C   0  0  0  0  0  0  0  0  0  0  0  0
   -4.8370   -0.1170  -21.9210 C   0  0  0  0  0  0  0  0  0  0  0  0
   -6.4980   -1.1200  -20.3810 C   0  0  0  0  0  0  0  0  0  0  0  0
   -4.5790    0.1150  -19.5230 C   0  0  0  0  0  0  0  0  0  0  0  0
   -5.3130   -0.3760  -20.6230 C   0  0  0  0  0  0  0  0  0  0  0  0
   -7.3860   -1.5410  -21.4140 N   0  0  0  0  0  0  0  0  0  0  0  0
   -9.0310    0.6930  -24.2920 N   0  0  0  0  0  0  0  0  0  0  0  0
   -8.1170    1.7650  -24.7100 C   0  0  0  0  0  0  0  0  0  0  0  0
   -8.1500   -3.6990  -24.3110 C   0  0  0  0  0  0  0  0  0  0  0  0
   -7.2150   -2.7940  -22.1390 C   0  0  0  0  0  0  0  0  0  0  0  0
   -5.2150    3.6720  -25.3100 C   0  0  0  0  0  0  0  0  0  0  0  0
   -4.9360    3.8900  -22.2350 C   0  0  0  0  0  0  0  0  0  0  0  0
   -6.4690    5.8720  -24.9360 C   0  0  0  0  0  0  0  0  0  0  0  0
   -6.4180    5.9650  -22.5180 C   0  0  0  0  0  0  0  0  0  0  0  0
   -8.5040   -0.6890  -24.2310 C   0  0  0  0  0  0  0  0  0  0  0  0
   -7.4440    2.3980  -23.4630 C   0  0  0  0  0  0  0  0  0  0  0  0
   -8.5050   -2.9680  -22.9870 C   0  0  0  0  0  0  0  0  0  0  0  0
   -6.5670    4.3170  -24.9140 C   0  0  0  0  0  0  0  0  0  0  0  0
   -6.3890    4.4190  -22.4180 C   0  0  0  0  0  0  0  0  0  0  0  0
   -9.1270   -1.5080  -23.0650 C   0  0  0  0  0  0  0  0  0  0  0  0
   -7.0930    3.8380  -23.6000 N   0  0  0  0  0  0  0  0  0  0  0  0
   -7.7080   -2.0030  -18.8110 H   0  0  0  0  0  0  0  0  0  0  0  0
  -14.5610   -0.6580  -23.0530 H   0  0  0  0  0  0  0  0  0  0  0  0
  -13.0260    1.0630  -23.9140 H   0  0  0  0  0  0  0  0  0  0  0  0
  -11.2630   -3.2570  -22.1900 H   0  0  0  0  0  0  0  0  0  0  0  0
   -2.0270    1.6780  -21.1580 H   0  0  0  0  0  0  0  0  0  0  0  0
   -3.2660    0.7640  -23.1160 H   0  0  0  0  0  0  0  0  0  0  0  0
   -4.4800    0.1600  -17.3570 H   0  0  0  0  0  0  0  0  0  0  0  0
   -2.8820    1.2910  -18.8600 H   0  0  0  0  0  0  0  0  0  0  0  0
   -5.3800   -0.4870  -22.7810 H   0  0  0  0  0  0  0  0  0  0  0  0
   -8.6880    2.5120  -25.2790 H   0  0  0  0  0  0  0  0  0  0  0  0
   -7.3590    1.3600  -25.3920 H   0  0  0  0  0  0  0  0  0  0  0  0
   -7.0890   -3.5650  -24.5590 H   0  0  0  0  0  0  0  0  0  0  0  0
   -8.7350   -3.3530  -25.1670 H   0  0  0  0  0  0  0  0  0  0  0  0
   -8.3120   -4.7770  -24.1920 H   0  0  0  0  0  0  0  0  0  0  0  0
   -6.3320   -2.6940  -22.7840 H   0  0  0  0  0  0  0  0  0  0  0  0
   -7.0650   -3.6350  -21.4490 H   0  0  0  0  0  0  0  0  0  0  0  0
   -4.3710    4.1900  -24.8360 H   0  0  0  0  0  0  0  0  0  0  0  0
   -5.0840    3.7500  -26.3950 H   0  0  0  0  0  0  0  0  0  0  0  0
   -5.1840    2.6120  -25.0210 H   0  0  0  0  0  0  0  0  0  0  0  0
   -4.1940    4.5930  -22.6310 H   0  0  0  0  0  0  0  0  0  0  0  0
   -4.7120    3.7350  -21.1780 H   0  0  0  0  0  0  0  0  0  0  0  0
   -4.7780    2.9370  -22.7460 H   0  0  0  0  0  0  0  0  0  0  0  0
   -7.4790    6.3040  -24.9730 H   0  0  0  0  0  0  0  0  0  0  0  0
   -5.9230    6.1770  -25.8390 H   0  0  0  0  0  0  0  0  0  0  0  0
   -7.4600    6.3130  -22.5050 H   0  0  0  0  0  0  0  0  0  0  0  0
   -5.9020    6.4120  -21.6570 H   0  0  0  0  0  0  0  0  0  0  0  0
   -7.4130   -0.6620  -24.1120 H   0  0  0  0  0  0  0  0  0  0  0  0
   -8.7210   -1.1810  -25.1820 H   0  0  0  0  0  0  0  0  0  0  0  0
   -8.1330    2.3000  -22.6130 H   0  0  0  0  0  0  0  0  0  0  0  0
   -6.5610    1.8030  -23.2180 H   0  0  0  0  0  0  0  0  0  0  0  0
   -9.1710   -3.6200  -22.4110 H   0  0  0  0  0  0  0  0  0  0  0  0
   -7.2840    4.0580  -25.7020 H   0  0  0  0  0  0  0  0  0  0  0  0
   -6.9360    4.1480  -21.5130 H   0  0  0  0  0  0  0  0  0  0  0  0
  6  2  2  0
  7  3  2  0
  8  4  2  0
 10  9  1  0
 13 12  1  0
 14  1  1  0
 14  9  2  0
 14 11  1  0
 15  6  1  0
 15 10  2  0
 16 11  2  0
 16 15  1  0
 17  4  1  0
 18 12  2  0
 19 13  2  0
 20  8  1  0
 21 17  2  0
 21 18  1  0
 22 19  1  0
 22 20  2  0
 22 21  1  0
 23  7  1  0
 23 20  1  0
 24  6  1  0
 25 24  1  0
 27 23  1  0
 30  5  1  0
 31  5  1  0
 32 24  1  0
 33 25  1  0
 34 26  1  0
 34 27  1  0
 35 28  1  0
 35 30  1  0
 36 29  1  0
 36 31  1  0
 37  7  1  0
 37 16  1  0
 37 32  1  0
 37 34  1  0
 38 33  1  0
 38 35  1  0
 38 36  1  0
  8 39  1  0
  9 40  1  0
 10 41  1  0
 11 42  1  0
 12 43  1  0
 13 44  1  0
 17 45  1  0
 18 46  1  0
 19 47  1  0
 25 48  1  0
 25 49  1  0
 26 50  1  0
 26 51  1  0
 26 52  1  0
 27 53  1  0
 27 54  1  0
 28 55  1  0
 28 56  1  0
 28 57  1  0
 29 58  1  0
 29 59  1  0
 29 60  1  0
 30 61  1  0
 30 62  1  0
 31 63  1  0
 31 64  1  0
 32 65  1  0
 32 66  1  0
 33 67  1  0
 33 68  1  0
 34 69  1  0
 35 70  1  0
 36 71  1  0
M  END
>  <Favorite_cresset>
false

>  <Protein_cresset>
sars_P

>  <MW_cresset>
533.1

>  <#Atoms_cresset>
38

>  <SlogP_cresset>
4.4

>  <TPSA_cresset>
66.0

>  <Flexibility_cresset>
4.8

>  <HBA_cresset>
7

>  <HBD_cresset>
0

>  <Rof5_cresset>
1

>  <Confs_cresset>
0

>  <Poses_cresset>
0

$$$$
predicted (84)
  xed2sdf           3D
 
 60 65  0  0  1  0  0  0  0  0999 V2000
  -14.0470   -3.1000  -21.8040 Cl  0  0  0  0  0  0  0  0  0  0  0  0
  -10.2940    1.8230  -24.5630 O   0  0  0  0  0  0  0  0  0  0  0  0
   -6.2820    3.1300  -24.8520 O   0  0  0  0  0  0  0  0  0  0  0  0
   -8.9750   -0.1490  -21.2490 O   0  0  0  0  0  0  0  0  0  0  0  0
   -6.2200   -0.7530  -18.0310 N   0  0  0  0  0  0  0  0  0  0  0  0
   -9.9490    0.6950  -24.2370 C   0  0  0  0  0  0  0  0  0  0  0  0
   -7.0830    2.3960  -24.2940 C   0  0  0  0  0  0  0  0  0  0  0  0
   -8.4710   -1.1130  -21.8010 C   0  0  0  0  0  0  0  0  0  0  0  0
   -6.8800   -1.3170  -19.0620 C   0  0  0  0  0  0  0  0  0  0  0  0
  -13.2800   -0.8740  -23.1690 C   0  0  0  0  0  0  0  0  0  0  0  0
  -12.3230   -0.0080  -23.7070 C   0  0  0  0  0  0  0  0  0  0  0  0
  -11.5090   -2.4420  -22.6030 C   0  0  0  0  0  0  0  0  0  0  0  0
   -2.9340    1.0260  -21.0890 C   0  0  0  0  0  0  0  0  0  0  0  0
   -3.6090    0.4420  -22.1750 C   0  0  0  0  0  0  0  0  0  0  0  0
  -12.8690   -2.0880  -22.6060 C   0  0  0  0  0  0  0  0  0  0  0  0
  -10.9530   -0.3280  -23.7040 C   0  0  0  0  0  0  0  0  0  0  0  0
  -10.5380   -1.5700  -23.1460 C   0  0  0  0  0  0  0  0  0  0  0  0
   -5.1010   -0.0510  -18.2830 C   0  0  0  0  0  0  0  0  0  0  0  0
   -3.4380    0.8670  -19.7920 C   0  0  0  0  0  0  0  0  0  0  0  0
   -4.7840   -0.3020  -21.9680 C   0  0  0  0  0  0  0  0  0  0  0  0
   -6.4600   -1.2110  -20.3880 C   0  0  0  0  0  0  0  0  0  0  0  0
   -4.6010    0.1130  -19.5800 C   0  0  0  0  0  0  0  0  0  0  0  0
   -5.2860   -0.4770  -20.6640 C   0  0  0  0  0  0  0  0  0  0  0  0
   -7.5940    2.7340  -23.0410 N   0  0  0  0  0  0  0  0  0  0  0  0
   -7.3040   -1.7170  -21.4060 N   0  0  0  0  0  0  0  0  0  0  0  0
   -8.6210    0.2690  -24.3450 N   0  0  0  0  0  0  0  0  0  0  0  0
   -7.1490    3.9550  -22.3060 C   0  0  0  0  0  0  0  0  0  0  0  0
   -7.6460    1.1560  -26.4970 C   0  0  0  0  0  0  0  0  0  0  0  0
   -6.5210    0.3940  -25.8540 C   0  0  0  0  0  0  0  0  0  0  0  0
   -7.5690    1.0860  -24.9790 C   0  0  0  0  0  0  0  0  0  0  0  0
   -8.3390   -4.2090  -24.0210 C   0  0  0  0  0  0  0  0  0  0  0  0
   -7.1380   -3.0300  -22.0400 C   0  0  0  0  0  0  0  0  0  0  0  0
   -8.3390   -1.1830  -24.2340 C   0  0  0  0  0  0  0  0  0  0  0  0
   -8.4890   -3.2830  -22.7720 C   0  0  0  0  0  0  0  0  0  0  0  0
   -9.0280   -1.8260  -23.0220 C   0  0  0  0  0  0  0  0  0  0  0  0
   -7.7980   -1.8540  -18.8300 H   0  0  0  0  0  0  0  0  0  0  0  0
  -14.3250   -0.5740  -23.1480 H   0  0  0  0  0  0  0  0  0  0  0  0
  -12.6520    0.9470  -24.0960 H   0  0  0  0  0  0  0  0  0  0  0  0
  -11.2170   -3.3680  -22.1250 H   0  0  0  0  0  0  0  0  0  0  0  0
   -2.0220    1.5980  -21.2460 H   0  0  0  0  0  0  0  0  0  0  0  0
   -3.2220    0.5650  -23.1810 H   0  0  0  0  0  0  0  0  0  0  0  0
   -4.6040    0.4100  -17.4270 H   0  0  0  0  0  0  0  0  0  0  0  0
   -2.9230    1.3240  -18.9530 H   0  0  0  0  0  0  0  0  0  0  0  0
   -5.2870   -0.7450  -22.8200 H   0  0  0  0  0  0  0  0  0  0  0  0
   -8.3020    2.1380  -22.6300 H   0  0  0  0  0  0  0  0  0  0  0  0
   -6.0940    3.8770  -22.0420 H   0  0  0  0  0  0  0  0  0  0  0  0
   -7.2370    4.8450  -22.9460 H   0  0  0  0  0  0  0  0  0  0  0  0
   -7.7050    4.1000  -21.3730 H   0  0  0  0  0  0  0  0  0  0  0  0
   -7.4030    2.0790  -27.0180 H   0  0  0  0  0  0  0  0  0  0  0  0
   -8.4300    0.5710  -26.9720 H   0  0  0  0  0  0  0  0  0  0  0  0
   -5.5170    0.8170  -25.8200 H   0  0  0  0  0  0  0  0  0  0  0  0
   -6.5500   -0.6860  -25.9840 H   0  0  0  0  0  0  0  0  0  0  0  0
   -7.3320   -4.1340  -24.4560 H   0  0  0  0  0  0  0  0  0  0  0  0
   -9.0650   -3.9750  -24.8120 H   0  0  0  0  0  0  0  0  0  0  0  0
   -8.4900   -5.2580  -23.7320 H   0  0  0  0  0  0  0  0  0  0  0  0
   -6.3140   -2.9720  -22.7650 H   0  0  0  0  0  0  0  0  0  0  0  0
   -6.9290   -3.8130  -21.3010 H   0  0  0  0  0  0  0  0  0  0  0  0
   -7.2570   -1.3410  -24.1300 H   0  0  0  0  0  0  0  0  0  0  0  0
   -8.7030   -1.6590  -25.1540 H   0  0  0  0  0  0  0  0  0  0  0  0
   -9.1420   -3.7790  -22.0450 H   0  0  0  0  0  0  0  0  0  0  0  0
  6  2  2  0
  7  3  2  0
  8  4  2  0
  9  5  2  0
 11 10  1  0
 14 13  1  0
 15  1  1  0
 15 10  2  0
 15 12  1  0
 16  6  1  0
 16 11  2  0
 17 12  2  0
 17 16  1  0
 18  5  1  0
 19 13  2  0
 20 14  2  0
 21  9  1  0
 22 18  2  0
 22 19  1  0
 23 20  1  0
 23 21  2  0
 23 22  1  0
 24  7  1  0
 25  8  1  0
 25 21  1  0
 26  6  1  0
 27 24  1  0
 29 28  1  0
 30  7  1  0
 30 26  1  0
 30 28  1  0
 30 29  1  0
 32 25  1  0
 33 26  1  0
 34 31  1  0
 34 32  1  0
 35  8  1  0
 35 17  1  0
 35 33  1  0
 35 34  1  0
  9 36  1  0
 10 37  1  0
 11 38  1  0
 12 39  1  0
 13 40  1  0
 14 41  1  0
 18 42  1  0
 19 43  1  0
 20 44  1  0
 24 45  1  0
 27 46  1  0
 27 47  1  0
 27 48  1  0
 28 49  1  0
 28 50  1  0
 29 51  1  0
 29 52  1  0
 31 53  1  0
 31 54  1  0
 31 55  1  0
 32 56  1  0
 32 57  1  0
 33 58  1  0
 33 59  1  0
 34 60  1  0
M  END
>  <Favorite_cresset>
false

>  <Protein_cresset>
sars_P

>  <MW_cresset>
489.0

>  <#Atoms_cresset>
35

>  <SlogP_cresset>
3.6

>  <TPSA_cresset>
82.6

>  <Flexibility_cresset>
1.9

>  <HBA_cresset>
7

>  <HBD_cresset>
1

>  <Rof5_cresset>
0

>  <Confs_cresset>
0

>  <Poses_cresset>
0

$$$$
predicted (85)
  xed2sdf           3D
 
 55 60  0  0  1  0  0  0  0  0999 V2000
   10.1280    3.1230   23.8980 O   0  0  0  0  0  0  0  0  0  0  0  0
    8.3310    1.2260   21.5200 O   0  0  0  0  0  0  0  0  0  0  0  0
    7.4790    4.0280   22.8490 N   0  0  0  0  0  0  0  0  0  0  0  0
    6.0770   -0.0260   17.7740 N   0  0  0  0  0  0  0  0  0  0  0  0
    5.2860    4.6590   23.0520 O   0  0  0  0  0  0  0  0  0  0  0  0
    9.7530    1.9600   23.9560 C   0  0  0  0  0  0  0  0  0  0  0  0
    8.0550    0.1030   21.8870 C   0  0  0  0  0  0  0  0  0  0  0  0
    6.4620    4.7090   22.3410 C   0  0  0  0  0  0  0  0  0  0  0  0
    6.7460   -0.4880   18.8500 C   0  0  0  0  0  0  0  0  0  0  0  0
    6.9400    3.4540   23.9730 C   0  0  0  0  0  0  0  0  0  0  0  0
    5.6550    3.8540   24.0670 C   0  0  0  0  0  0  0  0  0  0  0  0
   12.9590    0.0450   23.4250 C   0  0  0  0  0  0  0  0  0  0  0  0
   12.0500    1.0910   23.6030 C   0  0  0  0  0  0  0  0  0  0  0  0
   11.0920   -1.4870   23.1010 C   0  0  0  0  0  0  0  0  0  0  0  0
    2.6470    1.7380   20.7340 C   0  0  0  0  0  0  0  0  0  0  0  0
    3.3380    1.2440   21.8470 C   0  0  0  0  0  0  0  0  0  0  0  0
   12.4750   -1.2480   23.1990 C   0  0  0  0  0  0  0  0  0  0  0  0
   10.6640    0.8550   23.5400 C   0  0  0  0  0  0  0  0  0  0  0  0
   10.1560   -0.4250   23.2300 C   0  0  0  0  0  0  0  0  0  0  0  0
    4.9480    0.6780   17.9870 C   0  0  0  0  0  0  0  0  0  0  0  0
    3.1840    1.5620   19.4530 C   0  0  0  0  0  0  0  0  0  0  0  0
    4.5610    0.5780   21.6790 C   0  0  0  0  0  0  0  0  0  0  0  0
    6.3160   -0.2870   20.1690 C   0  0  0  0  0  0  0  0  0  0  0  0
    4.4060    0.8940   19.2700 C   0  0  0  0  0  0  0  0  0  0  0  0
    5.1010    0.3960   20.3890 C   0  0  0  0  0  0  0  0  0  0  0  0
    7.1420   -0.7010   21.2430 N   0  0  0  0  0  0  0  0  0  0  0  0
    8.4990    1.5890   24.4400 N   0  0  0  0  0  0  0  0  0  0  0  0
    7.6380    2.6200   25.0140 C   0  0  0  0  0  0  0  0  0  0  0  0
    7.6920   -2.8780   24.1950 C   0  0  0  0  0  0  0  0  0  0  0  0
    6.9210   -1.9450   21.9530 C   0  0  0  0  0  0  0  0  0  0  0  0
    7.9560    0.2000   24.3280 C   0  0  0  0  0  0  0  0  0  0  0  0
    8.0840   -2.0480   22.9470 C   0  0  0  0  0  0  0  0  0  0  0  0
    8.6100   -0.5780   23.1470 C   0  0  0  0  0  0  0  0  0  0  0  0
   13.3470   -2.2760   23.0860 F   0  0  0  0  0  0  0  0  0  0  0  0
    6.4790    5.2720   21.4180 H   0  0  0  0  0  0  0  0  0  0  0  0
    7.6740   -1.0230   18.6590 H   0  0  0  0  0  0  0  0  0  0  0  0
    4.9160    3.6440   24.8240 H   0  0  0  0  0  0  0  0  0  0  0  0
   14.0280    0.2330   23.4980 H   0  0  0  0  0  0  0  0  0  0  0  0
   12.4240    2.0810   23.8510 H   0  0  0  0  0  0  0  0  0  0  0  0
   10.7830   -2.5140   22.9430 H   0  0  0  0  0  0  0  0  0  0  0  0
    1.6820    2.2250   20.8540 H   0  0  0  0  0  0  0  0  0  0  0  0
    2.9090    1.3490   22.8380 H   0  0  0  0  0  0  0  0  0  0  0  0
    4.5090    1.1280   17.1000 H   0  0  0  0  0  0  0  0  0  0  0  0
    2.6220    1.9070   18.6010 H   0  0  0  0  0  0  0  0  0  0  0  0
    5.0610    0.1800   22.5550 H   0  0  0  0  0  0  0  0  0  0  0  0
    8.2710    3.2750   25.6260 H   0  0  0  0  0  0  0  0  0  0  0  0
    6.9090    2.1490   25.6830 H   0  0  0  0  0  0  0  0  0  0  0  0
    6.6550   -2.6800   24.4990 H   0  0  0  0  0  0  0  0  0  0  0  0
    8.3430   -2.6920   25.0600 H   0  0  0  0  0  0  0  0  0  0  0  0
    7.7660   -3.9410   23.9270 H   0  0  0  0  0  0  0  0  0  0  0  0
    5.9610   -1.9010   22.4810 H   0  0  0  0  0  0  0  0  0  0  0  0
    6.9190   -2.7950   21.2650 H   0  0  0  0  0  0  0  0  0  0  0  0
    6.8710    0.2510   24.1740 H   0  0  0  0  0  0  0  0  0  0  0  0
    8.1220   -0.3460   25.2630 H   0  0  0  0  0  0  0  0  0  0  0  0
    8.8400   -2.6010   22.3830 H   0  0  0  0  0  0  0  0  0  0  0  0
  6  1  2  0
  7  2  2  0
  8  3  2  0
  8  5  1  0
  9  4  2  0
 10  3  1  0
 11  5  1  0
 11 10  2  0
 13 12  1  0
 16 15  1  0
 17 12  2  0
 17 14  1  0
 18  6  1  0
 18 13  2  0
 19 14  2  0
 19 18  1  0
 20  4  1  0
 21 15  2  0
 22 16  2  0
 23  9  1  0
 24 20  2  0
 24 21  1  0
 25 22  1  0
 25 23  2  0
 25 24  1  0
 26  7  1  0
 26 23  1  0
 27  6  1  0
 28 10  1  0
 28 27  1  0
 30 26  1  0
 31 27  1  0
 32 29  1  0
 32 30  1  0
 33  7  1  0
 33 19  1  0
 33 31  1  0
 33 32  1  0
 34 17  1  0
  8 35  1  0
  9 36  1  0
 11 37  1  0
 12 38  1  0
 13 39  1  0
 14 40  1  0
 15 41  1  0
 16 42  1  0
 20 43  1  0
 21 44  1  0
 22 45  1  0
 28 46  1  0
 28 47  1  0
 29 48  1  0
 29 49  1  0
 29 50  1  0
 30 51  1  0
 30 52  1  0
 31 53  1  0
 31 54  1  0
 32 55  1  0
M  END
>  <Favorite_cresset>
false

>  <Protein_cresset>
sars_P

>  <MW_cresset>
456.5

>  <#Atoms_cresset>
34

>  <SlogP_cresset>
3.6

>  <TPSA_cresset>
79.5

>  <Flexibility_cresset>
2.9

>  <HBA_cresset>
7

>  <HBD_cresset>
0

>  <Rof5_cresset>
0

>  <Confs_cresset>
0

>  <Poses_cresset>
0

$$$$
predicted (86)
  xed2sdf           3D
 
 65 70  0  0  1  0  0  0  0  0999 V2000
   13.7340   -2.2670   23.1910 Cl  0  0  0  0  0  0  0  0  0  0  0  0
   10.4610    3.6470   23.7650 O   0  0  0  0  0  0  0  0  0  0  0  0
    5.8550    3.1780   23.8700 O   0  0  0  0  0  0  0  0  0  0  0  0
    8.5030    1.5300   21.5890 O   0  0  0  0  0  0  0  0  0  0  0  0
    5.1470   -6.4310   23.5840 N   0  0  0  0  0  0  0  0  0  0  0  0
    7.0220   -5.0770   22.9680 N   0  0  0  0  0  0  0  0  0  0  0  0
    6.0950   -4.9100   25.1790 N   0  0  0  0  0  0  0  0  0  0  0  0
    6.1020   -0.2290   17.9830 N   0  0  0  0  0  0  0  0  0  0  0  0
   10.0620    2.5020   23.9080 C   0  0  0  0  0  0  0  0  0  0  0  0
    6.9000    3.7800   24.0710 C   0  0  0  0  0  0  0  0  0  0  0  0
    8.2440    0.4390   22.0460 C   0  0  0  0  0  0  0  0  0  0  0  0
    6.0620   -5.9810   22.7060 C   0  0  0  0  0  0  0  0  0  0  0  0
    5.2150   -5.8530   24.8010 C   0  0  0  0  0  0  0  0  0  0  0  0
    6.9840   -4.5880   24.2240 C   0  0  0  0  0  0  0  0  0  0  0  0
    6.8470   -0.5020   19.0710 C   0  0  0  0  0  0  0  0  0  0  0  0
   13.2150    0.4010   23.4780 C   0  0  0  0  0  0  0  0  0  0  0  0
   12.3550    1.4940   23.6360 C   0  0  0  0  0  0  0  0  0  0  0  0
   11.2870   -1.0640   23.2670 C   0  0  0  0  0  0  0  0  0  0  0  0
    2.8390    1.9920   20.8060 C   0  0  0  0  0  0  0  0  0  0  0  0
    3.6070    1.7150   21.9460 C   0  0  0  0  0  0  0  0  0  0  0  0
   12.6750   -0.8770   23.3140 C   0  0  0  0  0  0  0  0  0  0  0  0
   10.9500    1.3160   23.6120 C   0  0  0  0  0  0  0  0  0  0  0  0
   10.3890    0.0280   23.3890 C   0  0  0  0  0  0  0  0  0  0  0  0
    4.9630    0.4700   18.1590 C   0  0  0  0  0  0  0  0  0  0  0  0
    3.2970    1.5940   19.5430 C   0  0  0  0  0  0  0  0  0  0  0  0
    4.8440    1.0580   21.8220 C   0  0  0  0  0  0  0  0  0  0  0  0
    6.4940   -0.0880   20.3690 C   0  0  0  0  0  0  0  0  0  0  0  0
    4.5150    0.9100   19.4150 C   0  0  0  0  0  0  0  0  0  0  0  0
    5.2950    0.6360   20.5530 C   0  0  0  0  0  0  0  0  0  0  0  0
    7.2250    4.9460   23.4070 N   0  0  0  0  0  0  0  0  0  0  0  0
    8.0000   -3.7350   24.5810 N   0  0  0  0  0  0  0  0  0  0  0  0
    7.3350   -0.4160   21.4620 N   0  0  0  0  0  0  0  0  0  0  0  0
    8.7900    2.2010   24.4090 N   0  0  0  0  0  0  0  0  0  0  0  0
    6.4750    5.3580   22.2180 C   0  0  0  0  0  0  0  0  0  0  0  0
    7.9590    3.2590   25.0380 C   0  0  0  0  0  0  0  0  0  0  0  0
    7.7760   -2.2780   24.6560 C   0  0  0  0  0  0  0  0  0  0  0  0
    7.1180   -1.6210   22.2370 C   0  0  0  0  0  0  0  0  0  0  0  0
    8.2960    0.7940   24.5120 C   0  0  0  0  0  0  0  0  0  0  0  0
    8.2340   -1.6120   23.3180 C   0  0  0  0  0  0  0  0  0  0  0  0
    8.8290   -0.1220   23.3580 C   0  0  0  0  0  0  0  0  0  0  0  0
    6.0270   -6.4030   21.7080 H   0  0  0  0  0  0  0  0  0  0  0  0
    4.4790   -6.1530   25.5390 H   0  0  0  0  0  0  0  0  0  0  0  0
    7.7630   -1.0640   18.8930 H   0  0  0  0  0  0  0  0  0  0  0  0
   14.2920    0.5460   23.4990 H   0  0  0  0  0  0  0  0  0  0  0  0
   12.7830    2.4780   23.8100 H   0  0  0  0  0  0  0  0  0  0  0  0
   10.9500   -2.0830   23.1500 H   0  0  0  0  0  0  0  0  0  0  0  0
    1.8820    2.4980   20.9050 H   0  0  0  0  0  0  0  0  0  0  0  0
    3.2330    1.9990   22.9250 H   0  0  0  0  0  0  0  0  0  0  0  0
    4.3950    0.6830   17.2620 H   0  0  0  0  0  0  0  0  0  0  0  0
    2.6970    1.7990   18.6670 H   0  0  0  0  0  0  0  0  0  0  0  0
    5.4300    0.8660   22.7170 H   0  0  0  0  0  0  0  0  0  0  0  0
    8.1540    5.3230   23.5490 H   0  0  0  0  0  0  0  0  0  0  0  0
    8.9160   -4.0060   24.2450 H   0  0  0  0  0  0  0  0  0  0  0  0
    5.4480    5.6220   22.4960 H   0  0  0  0  0  0  0  0  0  0  0  0
    6.4430    4.5090   21.5260 H   0  0  0  0  0  0  0  0  0  0  0  0
    6.9580    6.2130   21.7310 H   0  0  0  0  0  0  0  0  0  0  0  0
    7.4490    2.8530   25.9200 H   0  0  0  0  0  0  0  0  0  0  0  0
    8.5920    4.0990   25.3540 H   0  0  0  0  0  0  0  0  0  0  0  0
    6.7110   -2.0640   24.8420 H   0  0  0  0  0  0  0  0  0  0  0  0
    8.3640   -1.8850   25.4920 H   0  0  0  0  0  0  0  0  0  0  0  0
    6.1150   -1.5720   22.6800 H   0  0  0  0  0  0  0  0  0  0  0  0
    7.1780   -2.5060   21.5850 H   0  0  0  0  0  0  0  0  0  0  0  0
    7.2010    0.7970   24.4830 H   0  0  0  0  0  0  0  0  0  0  0  0
    8.6290    0.3990   25.4810 H   0  0  0  0  0  0  0  0  0  0  0  0
    8.9860   -2.2630   22.8710 H   0  0  0  0  0  0  0  0  0  0  0  0
  9  2  2  0
 10  3  2  0
 11  4  2  0
 12  5  2  0
 12  6  1  0
 13  5  1  0
 13  7  2  0
 14  6  2  0
 14  7  1  0
 15  8  2  0
 17 16  1  0
 20 19  1  0
 21  1  1  0
 21 16  2  0
 21 18  1  0
 22  9  1  0
 22 17  2  0
 23 18  2  0
 23 22  1  0
 24  8  1  0
 25 19  2  0
 26 20  2  0
 27 15  1  0
 28 24  2  0
 28 25  1  0
 29 26  1  0
 29 27  2  0
 29 28  1  0
 30 10  1  0
 31 14  1  0
 32 11  1  0
 32 27  1  0
 33  9  1  0
 34 30  1  0
 35 10  1  0
 35 33  1  0
 36 31  1  0
 37 32  1  0
 38 33  1  0
 39 36  1  0
 39 37  1  0
 40 11  1  0
 40 23  1  0
 40 38  1  0
 40 39  1  0
 12 41  1  0
 13 42  1  0
 15 43  1  0
 16 44  1  0
 17 45  1  0
 18 46  1  0
 19 47  1  0
 20 48  1  0
 24 49  1  0
 25 50  1  0
 26 51  1  0
 30 52  1  0
 31 53  1  0
 34 54  1  0
 34 55  1  0
 34 56  1  0
 35 57  1  0
 35 58  1  0
 36 59  1  0
 36 60  1  0
 37 61  1  0
 37 62  1  0
 38 63  1  0
 38 64  1  0
 39 65  1  0
M  END
>  <Favorite_cresset>
false

>  <Protein_cresset>
sars_P

>  <MW_cresset>
557.0

>  <#Atoms_cresset>
40

>  <SlogP_cresset>
2.3

>  <TPSA_cresset>
133.3

>  <Flexibility_cresset>
5.1

>  <HBA_cresset>
11

>  <HBD_cresset>
2

>  <Rof5_cresset>
2

>  <Confs_cresset>
0

>  <Poses_cresset>
0

$$$$
predicted (87)
  xed2sdf           3D
 
 63 68  0  0  1  0  0  0  0  0999 V2000
   13.5890   -2.2510   23.1690 Cl  0  0  0  0  0  0  0  0  0  0  0  0
   10.0030    3.4310   23.9340 O   0  0  0  0  0  0  0  0  0  0  0  0
    5.3820    3.4320   24.1010 O   0  0  0  0  0  0  0  0  0  0  0  0
    8.3670    1.3890   21.4960 O   0  0  0  0  0  0  0  0  0  0  0  0
    6.0220   -0.1100   17.8210 N   0  0  0  0  0  0  0  0  0  0  0  0
    6.0420   -4.4150   23.9700 N   0  0  0  0  0  0  0  0  0  0  0  0
    9.6670    2.2570   23.9770 C   0  0  0  0  0  0  0  0  0  0  0  0
    6.5990    3.5410   24.0930 C   0  0  0  0  0  0  0  0  0  0  0  0
    8.0760    0.2880   21.9150 C   0  0  0  0  0  0  0  0  0  0  0  0
    6.1130   -5.6780   23.5880 C   0  0  0  0  0  0  0  0  0  0  0  0
    6.7210   -0.4870   18.9090 C   0  0  0  0  0  0  0  0  0  0  0  0
   12.9180    0.3870   23.4730 C   0  0  0  0  0  0  0  0  0  0  0  0
   11.9950    1.4190   23.6640 C   0  0  0  0  0  0  0  0  0  0  0  0
   11.0900   -1.2000   23.2170 C   0  0  0  0  0  0  0  0  0  0  0  0
    2.7040    1.9300   20.7370 C   0  0  0  0  0  0  0  0  0  0  0  0
    3.4460    1.5570   21.8630 C   0  0  0  0  0  0  0  0  0  0  0  0
    7.4630   -6.0560   23.4080 C   0  0  0  0  0  0  0  0  0  0  0  0
   12.4610   -0.9240   23.2880 C   0  0  0  0  0  0  0  0  0  0  0  0
   10.6190    1.1460   23.6330 C   0  0  0  0  0  0  0  0  0  0  0  0
   10.1460   -0.1570   23.3450 C   0  0  0  0  0  0  0  0  0  0  0  0
    4.9020    0.6100   18.0190 C   0  0  0  0  0  0  0  0  0  0  0  0
    3.1920    1.6340   19.4550 C   0  0  0  0  0  0  0  0  0  0  0  0
    4.6650    0.8790   21.7150 C   0  0  0  0  0  0  0  0  0  0  0  0
    6.3400   -0.1600   20.2180 C   0  0  0  0  0  0  0  0  0  0  0  0
    8.2510   -4.9900   23.7050 C   0  0  0  0  0  0  0  0  0  0  0  0
    4.4050    0.9410   19.2960 C   0  0  0  0  0  0  0  0  0  0  0  0
    5.1440    0.5540   20.4280 C   0  0  0  0  0  0  0  0  0  0  0  0
    7.2670    4.3840   23.2210 N   0  0  0  0  0  0  0  0  0  0  0  0
    7.1720   -0.5360   21.2950 N   0  0  0  0  0  0  0  0  0  0  0  0
    8.4070    1.8480   24.4110 N   0  0  0  0  0  0  0  0  0  0  0  0
    7.3480   -3.9930   24.0380 N   0  0  0  0  0  0  0  0  0  0  0  0
    6.5920    5.3260   22.3280 C   0  0  0  0  0  0  0  0  0  0  0  0
    7.5000    2.7910   25.0860 C   0  0  0  0  0  0  0  0  0  0  0  0
    6.9500   -1.7620   22.0290 C   0  0  0  0  0  0  0  0  0  0  0  0
    7.6640   -2.5900   24.3370 C   0  0  0  0  0  0  0  0  0  0  0  0
    7.9750    0.4270   24.3840 C   0  0  0  0  0  0  0  0  0  0  0  0
    8.0940   -1.8320   23.0550 C   0  0  0  0  0  0  0  0  0  0  0  0
    8.6180   -0.3520   23.2110 C   0  0  0  0  0  0  0  0  0  0  0  0
    5.2090   -6.2550   23.4580 H   0  0  0  0  0  0  0  0  0  0  0  0
    7.6420   -1.0390   18.7350 H   0  0  0  0  0  0  0  0  0  0  0  0
   13.9790    0.5980   23.5240 H   0  0  0  0  0  0  0  0  0  0  0  0
   12.3470    2.4270   23.8630 H   0  0  0  0  0  0  0  0  0  0  0  0
   10.7810   -2.2310   23.1020 H   0  0  0  0  0  0  0  0  0  0  0  0
    1.7510    2.4380   20.8640 H   0  0  0  0  0  0  0  0  0  0  0  0
    3.0620    1.7770   22.8540 H   0  0  0  0  0  0  0  0  0  0  0  0
    7.8000   -7.0330   23.0910 H   0  0  0  0  0  0  0  0  0  0  0  0
    4.4220    0.9720   17.1180 H   0  0  0  0  0  0  0  0  0  0  0  0
    2.6040    1.9070   18.5910 H   0  0  0  0  0  0  0  0  0  0  0  0
    5.2070    0.5860   22.6080 H   0  0  0  0  0  0  0  0  0  0  0  0
    9.3260   -4.8500   23.6950 H   0  0  0  0  0  0  0  0  0  0  0  0
    8.2830    4.3830   23.2510 H   0  0  0  0  0  0  0  0  0  0  0  0
    5.5650    5.4910   22.6790 H   0  0  0  0  0  0  0  0  0  0  0  0
    6.5760    4.9150   21.3120 H   0  0  0  0  0  0  0  0  0  0  0  0
    7.1340    6.2810   22.3170 H   0  0  0  0  0  0  0  0  0  0  0  0
    6.8730    2.2440   25.7990 H   0  0  0  0  0  0  0  0  0  0  0  0
    8.1010    3.5310   25.6360 H   0  0  0  0  0  0  0  0  0  0  0  0
    5.9810   -1.6840   22.5350 H   0  0  0  0  0  0  0  0  0  0  0  0
    6.9560   -2.6300   21.3550 H   0  0  0  0  0  0  0  0  0  0  0  0
    6.7710   -2.1100   24.7570 H   0  0  0  0  0  0  0  0  0  0  0  0
    8.4550   -2.5530   25.0980 H   0  0  0  0  0  0  0  0  0  0  0  0
    6.8830    0.3740   24.2900 H   0  0  0  0  0  0  0  0  0  0  0  0
    8.2780   -0.0300   25.3350 H   0  0  0  0  0  0  0  0  0  0  0  0
    8.8490   -2.4250   22.5360 H   0  0  0  0  0  0  0  0  0  0  0  0
  7  2  2  0
  8  3  2  0
  9  4  2  0
 10  6  2  0
 11  5  2  0
 13 12  1  0
 16 15  1  0
 17 10  1  0
 18  1  1  0
 18 12  2  0
 18 14  1  0
 19  7  1  0
 19 13  2  0
 20 14  2  0
 20 19  1  0
 21  5  1  0
 22 15  2  0
 23 16  2  0
 24 11  1  0
 25 17  2  0
 26 21  2  0
 26 22  1  0
 27 23  1  0
 27 24  2  0
 27 26  1  0
 28  8  1  0
 29  9  1  0
 29 24  1  0
 30  7  1  0
 31  6  1  0
 31 25  1  0
 32 28  1  0
 33  8  1  0
 33 30  1  0
 34 29  1  0
 35 31  1  0
 36 30  1  0
 37 34  1  0
 37 35  1  0
 38  9  1  0
 38 20  1  0
 38 36  1  0
 38 37  1  0
 10 39  1  0
 11 40  1  0
 12 41  1  0
 13 42  1  0
 14 43  1  0
 15 44  1  0
 16 45  1  0
 17 46  1  0
 21 47  1  0
 22 48  1  0
 23 49  1  0
 25 50  1  0
 28 51  1  0
 32 52  1  0
 32 53  1  0
 32 54  1  0
 33 55  1  0
 33 56  1  0
 34 57  1  0
 34 58  1  0
 35 59  1  0
 35 60  1  0
 36 61  1  0
 36 62  1  0
 37 63  1  0
M  END
>  <Favorite_cresset>
false

>  <Protein_cresset>
sars_P

>  <MW_cresset>
529.0

>  <#Atoms_cresset>
38

>  <SlogP_cresset>
2.9

>  <TPSA_cresset>
100.4

>  <Flexibility_cresset>
4.9

>  <HBA_cresset>
9

>  <HBD_cresset>
1

>  <Rof5_cresset>
1

>  <Confs_cresset>
0

>  <Poses_cresset>
0

$$$$
predicted (88)
  xed2sdf           3D
 
 64 68  0  0  0  0  0  0  0  0999 V2000
    8.4190    1.5100   22.2360 O   0  0  0  0  0  0  0  0  0  0  0  0
    5.7780   -5.8960   20.8110 O   0  0  0  0  0  0  0  0  0  0  0  0
    5.8680    0.0800   18.3480 N   0  0  0  0  0  0  0  0  0  0  0  0
    8.0940    0.3670   22.5050 C   0  0  0  0  0  0  0  0  0  0  0  0
    6.1420   -4.9180   21.4490 C   0  0  0  0  0  0  0  0  0  0  0  0
    6.5960   -0.0420   19.4710 C   0  0  0  0  0  0  0  0  0  0  0  0
   12.3190   -3.0080   22.6950 C   0  0  0  0  0  0  0  0  0  0  0  0
   13.0120   -3.3440   23.8660 C   0  0  0  0  0  0  0  0  0  0  0  0
    7.8380   -1.7900   25.1320 C   0  0  0  0  0  0  0  0  0  0  0  0
    8.1960   -2.8630   22.9790 C   0  0  0  0  0  0  0  0  0  0  0  0
   11.3760   -1.9790   22.7100 C   0  0  0  0  0  0  0  0  0  0  0  0
   11.8620   -1.5370   25.0490 C   0  0  0  0  0  0  0  0  0  0  0  0
    7.1220   -2.9140   25.5720 C   0  0  0  0  0  0  0  0  0  0  0  0
    2.2690    2.0300   20.9700 C   0  0  0  0  0  0  0  0  0  0  0  0
    3.0640    1.9770   22.1270 C   0  0  0  0  0  0  0  0  0  0  0  0
   12.7600   -2.6230   25.0450 C   0  0  0  0  0  0  0  0  0  0  0  0
    8.3430   -1.7350   23.8250 C   0  0  0  0  0  0  0  0  0  0  0  0
    7.3890   -3.9410   23.3880 C   0  0  0  0  0  0  0  0  0  0  0  0
   11.1650   -1.2170   23.8660 C   0  0  0  0  0  0  0  0  0  0  0  0
    6.8550   -3.9700   24.6860 C   0  0  0  0  0  0  0  0  0  0  0  0
    4.6520    0.6380   18.4580 C   0  0  0  0  0  0  0  0  0  0  0  0
    2.7970    1.6000   19.7420 C   0  0  0  0  0  0  0  0  0  0  0  0
    4.3590    1.4370   22.0680 C   0  0  0  0  0  0  0  0  0  0  0  0
    6.1380    0.3460   20.7410 C   0  0  0  0  0  0  0  0  0  0  0  0
    4.1040    1.0870   19.6730 C   0  0  0  0  0  0  0  0  0  0  0  0
    4.8790    0.9710   20.8450 C   0  0  0  0  0  0  0  0  0  0  0  0
    8.8530   -0.4860   23.3260 N   0  0  0  0  0  0  0  0  0  0  0  0
    7.0500   -5.0100   22.5150 N   0  0  0  0  0  0  0  0  0  0  0  0
    6.8400   -0.2860   21.9260 C   0  0  0  0  0  0  0  0  0  0  0  0
   10.1930   -0.0600   23.7790 C   0  0  0  0  0  0  0  0  0  0  0  0
    5.5560   -3.0500   19.7210 C   0  0  0  0  0  0  0  0  0  0  0  0
    5.4970   -3.5520   21.1740 C   0  0  0  0  0  0  0  0  0  0  0  0
    5.9550   -5.1320   25.1170 C   0  0  0  0  0  0  0  0  0  0  0  0
    7.2150   -6.3040   23.1820 C   0  0  0  0  0  0  0  0  0  0  0  0
    6.1140   -6.4260   24.2570 C   0  0  0  0  0  0  0  0  0  0  0  0
   13.6700   -3.1300   26.6390 Br  0  0  0  0  0  0  0  0  0  0  0  0
    7.5520   -0.5510   19.3620 H   0  0  0  0  0  0  0  0  0  0  0  0
   12.5020   -3.5610   21.7810 H   0  0  0  0  0  0  0  0  0  0  0  0
   13.7290   -4.1600   23.8740 H   0  0  0  0  0  0  0  0  0  0  0  0
    7.9660   -0.9370   25.7930 H   0  0  0  0  0  0  0  0  0  0  0  0
    8.5910   -2.8440   21.9670 H   0  0  0  0  0  0  0  0  0  0  0  0
   10.8230   -1.7400   21.8040 H   0  0  0  0  0  0  0  0  0  0  0  0
   11.6710   -0.9810   25.9650 H   0  0  0  0  0  0  0  0  0  0  0  0
    6.7350   -2.9410   26.5850 H   0  0  0  0  0  0  0  0  0  0  0  0
    1.2560    2.4180   21.0280 H   0  0  0  0  0  0  0  0  0  0  0  0
    2.6670    2.3450   23.0700 H   0  0  0  0  0  0  0  0  0  0  0  0
    4.1150    0.7430   17.5280 H   0  0  0  0  0  0  0  0  0  0  0  0
    2.1880    1.6590   18.8460 H   0  0  0  0  0  0  0  0  0  0  0  0
    4.9630    1.4040   22.9720 H   0  0  0  0  0  0  0  0  0  0  0  0
    6.1470   -0.5350   22.7370 H   0  0  0  0  0  0  0  0  0  0  0  0
    7.1860   -1.2330   21.5170 H   0  0  0  0  0  0  0  0  0  0  0  0
   10.1120    0.4480   24.7440 H   0  0  0  0  0  0  0  0  0  0  0  0
   10.6000    0.6570   23.0520 H   0  0  0  0  0  0  0  0  0  0  0  0
    6.5420   -2.6280   19.5190 H   0  0  0  0  0  0  0  0  0  0  0  0
    5.3690   -3.8640   19.0120 H   0  0  0  0  0  0  0  0  0  0  0  0
    4.8170   -2.2580   19.5420 H   0  0  0  0  0  0  0  0  0  0  0  0
    4.4580   -3.7180   21.3710 H   0  0  0  0  0  0  0  0  0  0  0  0
    5.7970   -2.7810   21.8800 H   0  0  0  0  0  0  0  0  0  0  0  0
    4.9100   -4.8000   25.0580 H   0  0  0  0  0  0  0  0  0  0  0  0
    6.1480   -5.3730   26.1690 H   0  0  0  0  0  0  0  0  0  0  0  0
    8.1990   -6.3290   23.6690 H   0  0  0  0  0  0  0  0  0  0  0  0
    7.1670   -7.1300   22.4620 H   0  0  0  0  0  0  0  0  0  0  0  0
    5.1650   -6.6440   23.7500 H   0  0  0  0  0  0  0  0  0  0  0  0
    6.3170   -7.2770   24.9120 H   0  0  0  0  0  0  0  0  0  0  0  0
  4  1  2  0
  5  2  2  0
  6  3  2  0
  8  7  2  0
 11  7  1  0
 13  9  2  0
 15 14  1  0
 16  8  1  0
 16 12  2  0
 17  9  1  0
 17 10  2  0
 18 10  1  0
 19 11  2  0
 19 12  1  0
 20 13  1  0
 20 18  2  0
 21  3  1  0
 22 14  2  0
 23 15  2  0
 24  6  1  0
 25 21  2  0
 25 22  1  0
 26 23  1  0
 26 24  2  0
 26 25  1  0
 27  4  1  0
 27 17  1  0
 28  5  1  0
 28 18  1  0
 29  4  1  0
 29 24  1  0
 30 19  1  0
 30 27  1  0
 32  5  1  0
 32 31  1  0
 33 20  1  0
 34 28  1  0
 35 33  1  0
 35 34  1  0
 36 16  1  0
  6 37  1  0
  7 38  1  0
  8 39  1  0
  9 40  1  0
 10 41  1  0
 11 42  1  0
 12 43  1  0
 13 44  1  0
 14 45  1  0
 15 46  1  0
 21 47  1  0
 22 48  1  0
 23 49  1  0
 29 50  1  0
 29 51  1  0
 30 52  1  0
 30 53  1  0
 31 54  1  0
 31 55  1  0
 31 56  1  0
 32 57  1  0
 32 58  1  0
 33 59  1  0
 33 60  1  0
 34 61  1  0
 34 62  1  0
 35 63  1  0
 35 64  1  0
M  END
>  <Favorite_cresset>
false

>  <Protein_cresset>
sars_P

>  <MW_cresset>
542.5

>  <#Atoms_cresset>
36

>  <SlogP_cresset>
6.5

>  <TPSA_cresset>
53.5

>  <Flexibility_cresset>
6.2

>  <HBA_cresset>
5

>  <HBD_cresset>
0

>  <Rof5_cresset>
2

>  <Confs_cresset>
0

>  <Poses_cresset>
0

$$$$
predicted (89)
  xed2sdf           3D
 
 40 42  0  0  0  0  0  0  0  0999 V2000
    7.9980    1.5130   21.7360 O   0  0  0  0  0  0  0  0  0  0  0  0
    6.2030   -0.4550   18.0890 N   0  0  0  0  0  0  0  0  0  0  0  0
    8.2740    0.3920   22.1210 C   0  0  0  0  0  0  0  0  0  0  0  0
   11.6390    1.2360   23.3980 C   0  0  0  0  0  0  0  0  0  0  0  0
   12.3460    0.0390   24.0950 C   0  0  0  0  0  0  0  0  0  0  0  0
    6.8980   -0.8320   19.1800 C   0  0  0  0  0  0  0  0  0  0  0  0
    2.8670    1.5730   20.9680 C   0  0  0  0  0  0  0  0  0  0  0  0
    3.5890    1.1810   22.1010 C   0  0  0  0  0  0  0  0  0  0  0  0
    5.0730    0.2530   18.2660 C   0  0  0  0  0  0  0  0  0  0  0  0
    3.3560    1.2710   19.6870 C   0  0  0  0  0  0  0  0  0  0  0  0
    4.8150    0.5200   21.9640 C   0  0  0  0  0  0  0  0  0  0  0  0
    6.5290   -0.4740   20.4870 C   0  0  0  0  0  0  0  0  0  0  0  0
    4.5750    0.5930   19.5380 C   0  0  0  0  0  0  0  0  0  0  0  0
    5.3170    0.2260   20.6800 C   0  0  0  0  0  0  0  0  0  0  0  0
    9.3430    0.1810   23.0040 N   0  0  0  0  0  0  0  0  0  0  0  0
    7.4590   -0.8460   21.6410 C   0  0  0  0  0  0  0  0  0  0  0  0
   10.0980    1.2950   23.6330 C   0  0  0  0  0  0  0  0  0  0  0  0
   12.2590   -1.3150   23.3170 C   0  0  0  0  0  0  0  0  0  0  0  0
    9.6670   -1.1280   23.5880 C   0  0  0  0  0  0  0  0  0  0  0  0
   10.8450   -1.8090   22.8660 C   0  0  0  0  0  0  0  0  0  0  0  0
   11.8830    1.2450   22.3330 H   0  0  0  0  0  0  0  0  0  0  0  0
   12.0800    2.1620   23.7910 H   0  0  0  0  0  0  0  0  0  0  0  0
   13.4120    0.2910   24.2150 H   0  0  0  0  0  0  0  0  0  0  0  0
   11.9360   -0.0980   25.1080 H   0  0  0  0  0  0  0  0  0  0  0  0
    7.7960   -1.4200   19.0000 H   0  0  0  0  0  0  0  0  0  0  0  0
    1.9170    2.0860   21.0870 H   0  0  0  0  0  0  0  0  0  0  0  0
    3.1980    1.3720   23.0940 H   0  0  0  0  0  0  0  0  0  0  0  0
    4.5480    0.5420   17.3560 H   0  0  0  0  0  0  0  0  0  0  0  0
    2.7670    1.5220   18.8140 H   0  0  0  0  0  0  0  0  0  0  0  0
    5.3420    0.2230   22.8660 H   0  0  0  0  0  0  0  0  0  0  0  0
    8.1480   -1.6460   21.3360 H   0  0  0  0  0  0  0  0  0  0  0  0
    6.8870   -1.2600   22.4810 H   0  0  0  0  0  0  0  0  0  0  0  0
    9.7160    2.2680   23.2930 H   0  0  0  0  0  0  0  0  0  0  0  0
    9.9140    1.2620   24.7130 H   0  0  0  0  0  0  0  0  0  0  0  0
   12.9260   -1.2780   22.4430 H   0  0  0  0  0  0  0  0  0  0  0  0
   12.6660   -2.0930   23.9750 H   0  0  0  0  0  0  0  0  0  0  0  0
    8.7930   -1.7760   23.5310 H   0  0  0  0  0  0  0  0  0  0  0  0
    9.8980   -1.0040   24.6560 H   0  0  0  0  0  0  0  0  0  0  0  0
   10.7180   -1.6700   21.7860 H   0  0  0  0  0  0  0  0  0  0  0  0
   10.7750   -2.8950   23.0360 H   0  0  0  0  0  0  0  0  0  0  0  0
  3  1  2  0
  5  4  1  0
  6  2  2  0
  8  7  1  0
  9  2  1  0
 10  7  2  0
 11  8  2  0
 12  6  1  0
 13  9  2  0
 13 10  1  0
 14 11  1  0
 14 12  2  0
 14 13  1  0
 15  3  1  0
 16  3  1  0
 16 12  1  0
 17  4  1  0
 17 15  1  0
 18  5  1  0
 19 15  1  0
 20 18  1  0
 20 19  1  0
  4 21  1  0
  4 22  1  0
  5 23  1  0
  5 24  1  0
  6 25  1  0
  7 26  1  0
  8 27  1  0
  9 28  1  0
 10 29  1  0
 11 30  1  0
 16 31  1  0
 16 32  1  0
 17 33  1  0
 17 34  1  0
 18 35  1  0
 18 36  1  0
 19 37  1  0
 19 38  1  0
 20 39  1  0
 20 40  1  0
M  END
>  <Favorite_cresset>
false

>  <Protein_cresset>
sars_P

>  <MW_cresset>
268.4

>  <#Atoms_cresset>
20

>  <SlogP_cresset>
3.2

>  <TPSA_cresset>
33.2

>  <Flexibility_cresset>
4.3

>  <HBA_cresset>
3

>  <HBD_cresset>
0

>  <Rof5_cresset>
0

>  <Confs_cresset>
0

>  <Poses_cresset>
0

$$$$
predicted (90)
  xed2sdf           3D
 
 61 66  0  0  1  0  0  0  0  0999 V2000
   13.8320   -2.2980   23.4080 Cl  0  0  0  0  0  0  0  0  0  0  0  0
   10.2880    3.4250   23.7940 O   0  0  0  0  0  0  0  0  0  0  0  0
    8.5410    1.3240   21.5260 O   0  0  0  0  0  0  0  0  0  0  0  0
    6.1210   -0.2530   17.9500 N   0  0  0  0  0  0  0  0  0  0  0  0
    9.9420    2.2630   23.9670 C   0  0  0  0  0  0  0  0  0  0  0  0
    8.2490    0.2430   21.9940 C   0  0  0  0  0  0  0  0  0  0  0  0
    6.8230   -0.6150   19.0430 C   0  0  0  0  0  0  0  0  0  0  0  0
   13.1680    0.3470   23.6110 C   0  0  0  0  0  0  0  0  0  0  0  0
   12.2490    1.3820   23.7780 C   0  0  0  0  0  0  0  0  0  0  0  0
   11.3270   -1.2310   23.3630 C   0  0  0  0  0  0  0  0  0  0  0  0
    2.8050    1.8440   20.8170 C   0  0  0  0  0  0  0  0  0  0  0  0
    3.5520    1.4960   21.9500 C   0  0  0  0  0  0  0  0  0  0  0  0
   12.7040   -0.9650   23.4570 C   0  0  0  0  0  0  0  0  0  0  0  0
   10.8720    1.1250   23.7000 C   0  0  0  0  0  0  0  0  0  0  0  0
   10.3840   -0.1750   23.4230 C   0  0  0  0  0  0  0  0  0  0  0  0
    4.9980    0.4700   18.1300 C   0  0  0  0  0  0  0  0  0  0  0  0
    3.2890    1.5130   19.5430 C   0  0  0  0  0  0  0  0  0  0  0  0
    4.7680    0.8010   21.8240 C   0  0  0  0  0  0  0  0  0  0  0  0
    6.4570   -0.2540   20.3480 C   0  0  0  0  0  0  0  0  0  0  0  0
    4.5070    0.8200   19.4040 C   0  0  0  0  0  0  0  0  0  0  0  0
    5.2520    0.4570   20.5440 C   0  0  0  0  0  0  0  0  0  0  0  0
    7.3120   -0.5880   21.4290 N   0  0  0  0  0  0  0  0  0  0  0  0
    8.6750    1.9100   24.4270 N   0  0  0  0  0  0  0  0  0  0  0  0
    7.6920    2.9790   24.7140 C   0  0  0  0  0  0  0  0  0  0  0  0
    5.5110    6.5300   22.7270 C   0  0  0  0  0  0  0  0  0  0  0  0
    7.9710   -2.6290   24.4260 C   0  0  0  0  0  0  0  0  0  0  0  0
    7.1610   -1.8200   22.1690 C   0  0  0  0  0  0  0  0  0  0  0  0
    8.2230    0.4780   24.4620 C   0  0  0  0  0  0  0  0  0  0  0  0
    7.0080    3.4390   23.4010 C   0  0  0  0  0  0  0  0  0  0  0  0
    6.7670    6.0590   23.5380 C   0  0  0  0  0  0  0  0  0  0  0  0
    5.5100    5.0720   22.1950 C   0  0  0  0  0  0  0  0  0  0  0  0
    8.3430   -1.8460   23.1470 C   0  0  0  0  0  0  0  0  0  0  0  0
    8.8410   -0.3520   23.2920 C   0  0  0  0  0  0  0  0  0  0  0  0
    6.1820    4.6680   23.4610 N   0  0  0  0  0  0  0  0  0  0  0  0
    7.7260   -1.1990   18.8720 H   0  0  0  0  0  0  0  0  0  0  0  0
   14.2310    0.5530   23.6640 H   0  0  0  0  0  0  0  0  0  0  0  0
   12.6000    2.3870   23.9970 H   0  0  0  0  0  0  0  0  0  0  0  0
   11.0180   -2.2660   23.2790 H   0  0  0  0  0  0  0  0  0  0  0  0
    1.8500    2.3600   20.9270 H   0  0  0  0  0  0  0  0  0  0  0  0
    3.1720    1.7450   22.9350 H   0  0  0  0  0  0  0  0  0  0  0  0
    4.5000    0.7990   17.2220 H   0  0  0  0  0  0  0  0  0  0  0  0
    2.6940    1.7560   18.6720 H   0  0  0  0  0  0  0  0  0  0  0  0
    5.3050    0.5110   22.7230 H   0  0  0  0  0  0  0  0  0  0  0  0
    8.2070    3.8340   25.1690 H   0  0  0  0  0  0  0  0  0  0  0  0
    6.9520    2.5990   25.4290 H   0  0  0  0  0  0  0  0  0  0  0  0
    4.6220    6.8060   23.3070 H   0  0  0  0  0  0  0  0  0  0  0  0
    5.6810    7.2830   21.9480 H   0  0  0  0  0  0  0  0  0  0  0  0
    6.9820   -2.3330   24.7930 H   0  0  0  0  0  0  0  0  0  0  0  0
    8.6960   -2.4880   25.2350 H   0  0  0  0  0  0  0  0  0  0  0  0
    7.9260   -3.7000   24.1850 H   0  0  0  0  0  0  0  0  0  0  0  0
    6.2120   -1.7830   22.7150 H   0  0  0  0  0  0  0  0  0  0  0  0
    7.1790   -2.6920   21.5020 H   0  0  0  0  0  0  0  0  0  0  0  0
    7.1270    0.4380   24.3930 H   0  0  0  0  0  0  0  0  0  0  0  0
    8.5610    0.0430   25.4130 H   0  0  0  0  0  0  0  0  0  0  0  0
    7.7790    3.5920   22.6300 H   0  0  0  0  0  0  0  0  0  0  0  0
    6.3730    2.6080   23.0740 H   0  0  0  0  0  0  0  0  0  0  0  0
    7.6950    6.2260   22.9800 H   0  0  0  0  0  0  0  0  0  0  0  0
    6.8590    6.5050   24.5350 H   0  0  0  0  0  0  0  0  0  0  0  0
    4.5120    4.6620   22.0110 H   0  0  0  0  0  0  0  0  0  0  0  0
    6.1420    4.9330   21.3110 H   0  0  0  0  0  0  0  0  0  0  0  0
    9.1030   -2.4130   22.6030 H   0  0  0  0  0  0  0  0  0  0  0  0
  5  2  2  0
  6  3  2  0
  7  4  2  0
  9  8  1  0
 12 11  1  0
 13  1  1  0
 13  8  2  0
 13 10  1  0
 14  5  1  0
 14  9  2  0
 15 10  2  0
 15 14  1  0
 16  4  1  0
 17 11  2  0
 18 12  2  0
 19  7  1  0
 20 16  2  0
 20 17  1  0
 21 18  1  0
 21 19  2  0
 21 20  1  0
 22  6  1  0
 22 19  1  0
 23  5  1  0
 24 23  1  0
 27 22  1  0
 28 23  1  0
 29 24  1  0
 30 25  1  0
 31 25  1  0
 32 26  1  0
 32 27  1  0
 33  6  1  0
 33 15  1  0
 33 28  1  0
 33 32  1  0
 34 29  1  0
 34 30  1  0
 34 31  1  0
  7 35  1  0
  8 36  1  0
  9 37  1  0
 10 38  1  0
 11 39  1  0
 12 40  1  0
 16 41  1  0
 17 42  1  0
 18 43  1  0
 24 44  1  0
 24 45  1  0
 25 46  1  0
 25 47  1  0
 26 48  1  0
 26 49  1  0
 26 50  1  0
 27 51  1  0
 27 52  1  0
 28 53  1  0
 28 54  1  0
 29 55  1  0
 29 56  1  0
 30 57  1  0
 30 58  1  0
 31 59  1  0
 31 60  1  0
 32 61  1  0
M  END
>  <Favorite_cresset>
false

>  <Protein_cresset>
sars_P

>  <MW_cresset>
475.0

>  <#Atoms_cresset>
34

>  <SlogP_cresset>
4.0

>  <TPSA_cresset>
56.8

>  <Flexibility_cresset>
3.9

>  <HBA_cresset>
6

>  <HBD_cresset>
0

>  <Rof5_cresset>
0

>  <Confs_cresset>
0

>  <Poses_cresset>
0

$$$$
predicted (91)
  xed2sdf           3D
 
 56 61  0  0  1  0  0  0  0  0999 V2000
   10.2220    3.3380   23.7380 O   0  0  0  0  0  0  0  0  0  0  0  0
    8.3920    1.3540   21.4770 O   0  0  0  0  0  0  0  0  0  0  0  0
    6.1390   -0.0850   17.7540 N   0  0  0  0  0  0  0  0  0  0  0  0
    4.9940    4.0830   22.7610 N   0  0  0  0  0  0  0  0  0  0  0  0
    9.8900    2.1680   23.8180 C   0  0  0  0  0  0  0  0  0  0  0  0
    8.2010    0.2140   21.8370 C   0  0  0  0  0  0  0  0  0  0  0  0
    5.3810    3.2140   23.7710 C   0  0  0  0  0  0  0  0  0  0  0  0
    6.8350   -0.5190   18.8260 C   0  0  0  0  0  0  0  0  0  0  0  0
   13.1670    0.2640   23.4860 C   0  0  0  0  0  0  0  0  0  0  0  0
   12.2380    1.2970   23.6180 C   0  0  0  0  0  0  0  0  0  0  0  0
   11.3340   -1.2920   23.1110 C   0  0  0  0  0  0  0  0  0  0  0  0
    2.7190    1.6420   20.7180 C   0  0  0  0  0  0  0  0  0  0  0  0
    3.4580    1.2290   21.8350 C   0  0  0  0  0  0  0  0  0  0  0  0
   12.7100   -1.0350   23.2640 C   0  0  0  0  0  0  0  0  0  0  0  0
   10.8550    1.0550   23.4790 C   0  0  0  0  0  0  0  0  0  0  0  0
    6.7310    3.3970   23.8380 C   0  0  0  0  0  0  0  0  0  0  0  0
   10.3800   -0.2360   23.1630 C   0  0  0  0  0  0  0  0  0  0  0  0
    4.9950    0.5900   17.9670 C   0  0  0  0  0  0  0  0  0  0  0  0
    3.2240    1.4380   19.4260 C   0  0  0  0  0  0  0  0  0  0  0  0
    4.7030    0.6090   21.6570 C   0  0  0  0  0  0  0  0  0  0  0  0
    6.4430   -0.2700   20.1480 C   0  0  0  0  0  0  0  0  0  0  0  0
    7.1130    4.3730   22.8840 C   0  0  0  0  0  0  0  0  0  0  0  0
    4.4690    0.8090   19.2490 C   0  0  0  0  0  0  0  0  0  0  0  0
    5.2130    0.3830   20.3650 C   0  0  0  0  0  0  0  0  0  0  0  0
    7.3030   -0.6330   21.2190 N   0  0  0  0  0  0  0  0  0  0  0  0
    8.6280    1.7730   24.2900 N   0  0  0  0  0  0  0  0  0  0  0  0
    6.0420    4.8040   22.2400 N   0  0  0  0  0  0  0  0  0  0  0  0
    7.6870    2.7810   24.8410 C   0  0  0  0  0  0  0  0  0  0  0  0
    8.0570   -2.7740   24.1480 C   0  0  0  0  0  0  0  0  0  0  0  0
    7.1550   -1.8860   21.9360 C   0  0  0  0  0  0  0  0  0  0  0  0
    8.2090    0.3340   24.2940 C   0  0  0  0  0  0  0  0  0  0  0  0
    8.3610   -1.9320   22.8900 C   0  0  0  0  0  0  0  0  0  0  0  0
    8.8350   -0.4350   23.0830 C   0  0  0  0  0  0  0  0  0  0  0  0
   13.6020   -2.0500   23.2130 F   0  0  0  0  0  0  0  0  0  0  0  0
    4.0610    4.2100   22.3890 H   0  0  0  0  0  0  0  0  0  0  0  0
    4.6920    2.5880   24.3260 H   0  0  0  0  0  0  0  0  0  0  0  0
    7.7510   -1.0660   18.6220 H   0  0  0  0  0  0  0  0  0  0  0  0
   14.2280    0.4720   23.5880 H   0  0  0  0  0  0  0  0  0  0  0  0
   12.5880    2.2860   23.8860 H   0  0  0  0  0  0  0  0  0  0  0  0
   11.0470   -2.3310   23.0190 H   0  0  0  0  0  0  0  0  0  0  0  0
    1.7560    2.1240   20.8530 H   0  0  0  0  0  0  0  0  0  0  0  0
    3.0700    1.3900   22.8400 H   0  0  0  0  0  0  0  0  0  0  0  0
    4.4960    0.9730   17.0850 H   0  0  0  0  0  0  0  0  0  0  0  0
    2.6360    1.7600   18.5760 H   0  0  0  0  0  0  0  0  0  0  0  0
    5.2610    0.2940   22.5270 H   0  0  0  0  0  0  0  0  0  0  0  0
    8.0810    4.7870   22.6400 H   0  0  0  0  0  0  0  0  0  0  0  0
    8.2880    3.5890   25.2730 H   0  0  0  0  0  0  0  0  0  0  0  0
    7.1160    2.3420   25.6650 H   0  0  0  0  0  0  0  0  0  0  0  0
    7.0140   -2.6400   24.4750 H   0  0  0  0  0  0  0  0  0  0  0  0
    8.7340   -2.5420   24.9810 H   0  0  0  0  0  0  0  0  0  0  0  0
    8.1910   -3.8340   23.8850 H   0  0  0  0  0  0  0  0  0  0  0  0
    6.2100   -1.8720   22.4980 H   0  0  0  0  0  0  0  0  0  0  0  0
    7.1770   -2.7420   21.2530 H   0  0  0  0  0  0  0  0  0  0  0  0
    7.1180    0.2580   24.2340 H   0  0  0  0  0  0  0  0  0  0  0  0
    8.5120   -0.1310   25.2380 H   0  0  0  0  0  0  0  0  0  0  0  0
    9.1250   -2.4770   22.3220 H   0  0  0  0  0  0  0  0  0  0  0  0
  5  1  2  0
  6  2  2  0
  7  4  1  0
  8  3  2  0
 10  9  1  0
 13 12  1  0
 14  9  2  0
 14 11  1  0
 15  5  1  0
 15 10  2  0
 16  7  2  0
 17 11  2  0
 17 15  1  0
 18  3  1  0
 19 12  2  0
 20 13  2  0
 21  8  1  0
 22 16  1  0
 23 18  2  0
 23 19  1  0
 24 20  1  0
 24 21  2  0
 24 23  1  0
 25  6  1  0
 25 21  1  0
 26  5  1  0
 27  4  1  0
 27 22  2  0
 28 16  1  0
 28 26  1  0
 30 25  1  0
 31 26  1  0
 32 29  1  0
 32 30  1  0
 33  6  1  0
 33 17  1  0
 33 31  1  0
 33 32  1  0
 34 14  1  0
  4 35  1  0
  7 36  1  0
  8 37  1  0
  9 38  1  0
 10 39  1  0
 11 40  1  0
 12 41  1  0
 13 42  1  0
 18 43  1  0
 19 44  1  0
 20 45  1  0
 22 46  1  0
 28 47  1  0
 28 48  1  0
 29 49  1  0
 29 50  1  0
 29 51  1  0
 30 52  1  0
 30 53  1  0
 31 54  1  0
 31 55  1  0
 32 56  1  0
M  END
>  <Favorite_cresset>
false

>  <Protein_cresset>
sars_P

>  <MW_cresset>
455.5

>  <#Atoms_cresset>
34

>  <SlogP_cresset>
3.9

>  <TPSA_cresset>
82.2

>  <Flexibility_cresset>
2.9

>  <HBA_cresset>
7

>  <HBD_cresset>
1

>  <Rof5_cresset>
0

>  <Confs_cresset>
0

>  <Poses_cresset>
0

$$$$
predicted (92)
  xed2sdf           3D
 
 53 56  0  0  1  0  0  0  0  0999 V2000
    8.1820    1.0150   21.4990 O   0  0  0  0  0  0  0  0  0  0  0  0
    6.2280   -0.1120   17.6810 N   0  0  0  0  0  0  0  0  0  0  0  0
    8.0860   -0.1270   21.9110 C   0  0  0  0  0  0  0  0  0  0  0  0
    6.1660    0.5230   24.9210 C   0  0  0  0  0  0  0  0  0  0  0  0
    6.2740   -0.8480   25.6670 C   0  0  0  0  0  0  0  0  0  0  0  0
    7.4730    1.3430   24.7370 C   0  0  0  0  0  0  0  0  0  0  0  0
    6.6000   -2.0750   24.7560 C   0  0  0  0  0  0  0  0  0  0  0  0
    8.7090    0.5590   24.2600 C   0  0  0  0  0  0  0  0  0  0  0  0
    8.1060   -2.4510   24.7160 C   0  0  0  0  0  0  0  0  0  0  0  0
    6.9200   -0.6750   18.6910 C   0  0  0  0  0  0  0  0  0  0  0  0
   13.2610   -1.9880   24.1970 C   0  0  0  0  0  0  0  0  0  0  0  0
   12.6950   -2.3920   22.9850 C   0  0  0  0  0  0  0  0  0  0  0  0
   12.4410   -1.5200   25.2270 C   0  0  0  0  0  0  0  0  0  0  0  0
   11.3050   -2.2890   22.7890 C   0  0  0  0  0  0  0  0  0  0  0  0
   11.0510   -1.4950   25.0640 C   0  0  0  0  0  0  0  0  0  0  0  0
    2.8220    1.3130   20.8050 C   0  0  0  0  0  0  0  0  0  0  0  0
    3.4180    0.5360   21.8080 C   0  0  0  0  0  0  0  0  0  0  0  0
   10.4590   -1.8430   23.8250 C   0  0  0  0  0  0  0  0  0  0  0  0
    5.0800    0.5290   17.9590 C   0  0  0  0  0  0  0  0  0  0  0  0
    3.3620    1.3020   19.5140 C   0  0  0  0  0  0  0  0  0  0  0  0
    4.6030   -0.1680   21.5480 C   0  0  0  0  0  0  0  0  0  0  0  0
    6.4630   -0.6820   20.0090 C   0  0  0  0  0  0  0  0  0  0  0  0
    4.5380    0.5820   19.2500 C   0  0  0  0  0  0  0  0  0  0  0  0
    5.2050   -0.0980   20.2840 C   0  0  0  0  0  0  0  0  0  0  0  0
    8.4430   -0.4600   23.2170 N   0  0  0  0  0  0  0  0  0  0  0  0
    7.3880   -1.2440   21.0810 C   0  0  0  0  0  0  0  0  0  0  0  0
    8.9340   -1.8080   23.5700 C   0  0  0  0  0  0  0  0  0  0  0  0
    5.7140    0.3740   23.9370 H   0  0  0  0  0  0  0  0  0  0  0  0
    5.4660    1.1600   25.4800 H   0  0  0  0  0  0  0  0  0  0  0  0
    5.2920   -1.0470   26.1140 H   0  0  0  0  0  0  0  0  0  0  0  0
    6.9600   -0.7900   26.5220 H   0  0  0  0  0  0  0  0  0  0  0  0
    7.2740    2.1620   24.0340 H   0  0  0  0  0  0  0  0  0  0  0  0
    7.7400    1.8150   25.6900 H   0  0  0  0  0  0  0  0  0  0  0  0
    6.1910   -1.9220   23.7580 H   0  0  0  0  0  0  0  0  0  0  0  0
    6.0590   -2.9470   25.1390 H   0  0  0  0  0  0  0  0  0  0  0  0
    9.0580    0.0490   25.1590 H   0  0  0  0  0  0  0  0  0  0  0  0
    9.5100    1.2390   23.9400 H   0  0  0  0  0  0  0  0  0  0  0  0
    8.2170   -3.5400   24.6330 H   0  0  0  0  0  0  0  0  0  0  0  0
    8.5230   -2.1790   25.6870 H   0  0  0  0  0  0  0  0  0  0  0  0
    7.8740   -1.1510   18.4500 H   0  0  0  0  0  0  0  0  0  0  0  0
   14.3280   -2.0780   24.3600 H   0  0  0  0  0  0  0  0  0  0  0  0
   13.3470   -2.7920   22.2100 H   0  0  0  0  0  0  0  0  0  0  0  0
   12.8790   -1.2010   26.1640 H   0  0  0  0  0  0  0  0  0  0  0  0
   10.8750   -2.5780   21.8390 H   0  0  0  0  0  0  0  0  0  0  0  0
   10.4520   -1.1890   25.9120 H   0  0  0  0  0  0  0  0  0  0  0  0
    1.9320    1.9010   21.0150 H   0  0  0  0  0  0  0  0  0  0  0  0
    2.9700    0.4870   22.7930 H   0  0  0  0  0  0  0  0  0  0  0  0
    4.6030    1.0200   17.1170 H   0  0  0  0  0  0  0  0  0  0  0  0
    2.8880    1.8670   18.7230 H   0  0  0  0  0  0  0  0  0  0  0  0
    5.0320   -0.7820   22.3250 H   0  0  0  0  0  0  0  0  0  0  0  0
    8.1820   -1.8500   20.6280 H   0  0  0  0  0  0  0  0  0  0  0  0
    6.8250   -1.9260   21.7270 H   0  0  0  0  0  0  0  0  0  0  0  0
    8.7870   -2.4520   22.6990 H   0  0  0  0  0  0  0  0  0  0  0  0
  3  1  2  0
  5  4  1  0
  6  4  1  0
  7  5  1  0
  8  6  1  0
  9  7  1  0
 10  2  2  0
 12 11  2  0
 13 11  1  0
 14 12  1  0
 15 13  2  0
 17 16  1  0
 18 14  2  0
 18 15  1  0
 19  2  1  0
 20 16  2  0
 21 17  2  0
 22 10  1  0
 23 19  2  0
 23 20  1  0
 24 21  1  0
 24 22  2  0
 24 23  1  0
 25  3  1  0
 25  8  1  0
 26  3  1  0
 26 22  1  0
 27  9  1  0
 27 18  1  0
 27 25  1  0
  4 28  1  0
  4 29  1  0
  5 30  1  0
  5 31  1  0
  6 32  1  0
  6 33  1  0
  7 34  1  0
  7 35  1  0
  8 36  1  0
  8 37  1  0
  9 38  1  0
  9 39  1  0
 10 40  1  0
 11 41  1  0
 12 42  1  0
 13 43  1  0
 14 44  1  0
 15 45  1  0
 16 46  1  0
 17 47  1  0
 19 48  1  0
 20 49  1  0
 21 50  1  0
 26 51  1  0
 26 52  1  0
 27 53  1  0
M  END
>  <Favorite_cresset>
false

>  <Protein_cresset>
sars_P

>  <MW_cresset>
358.5

>  <#Atoms_cresset>
27

>  <SlogP_cresset>
5.3

>  <TPSA_cresset>
33.2

>  <Flexibility_cresset>
6.3

>  <HBA_cresset>
3

>  <HBD_cresset>
0

>  <Rof5_cresset>
1

>  <Confs_cresset>
0

>  <Poses_cresset>
0

$$$$
predicted (93)
  xed2sdf           3D
 
 57 61  0  0  1  0  0  0  0  0999 V2000
   10.3890    3.1300   23.7790 O   0  0  0  0  0  0  0  0  0  0  0  0
    8.5760    1.1000   21.4860 O   0  0  0  0  0  0  0  0  0  0  0  0
    6.0980   -0.2270   17.9490 N   0  0  0  0  0  0  0  0  0  0  0  0
    9.9940    1.9820   23.9100 C   0  0  0  0  0  0  0  0  0  0  0  0
    8.2550    0.0280   21.9410 C   0  0  0  0  0  0  0  0  0  0  0  0
    6.7810   -0.6530   19.0270 C   0  0  0  0  0  0  0  0  0  0  0  0
   13.1700   -0.0450   23.5760 C   0  0  0  0  0  0  0  0  0  0  0  0
   12.2860    1.0160   23.7560 C   0  0  0  0  0  0  0  0  0  0  0  0
   11.2820   -1.5440   23.2460 C   0  0  0  0  0  0  0  0  0  0  0  0
    2.8290    1.8020   20.9220 C   0  0  0  0  0  0  0  0  0  0  0  0
    3.5420    1.3560   22.0460 C   0  0  0  0  0  0  0  0  0  0  0  0
   12.6640   -1.3280   23.3650 C   0  0  0  0  0  0  0  0  0  0  0  0
   10.8990    0.8130   23.6570 C   0  0  0  0  0  0  0  0  0  0  0  0
   10.3680   -0.4620   23.3480 C   0  0  0  0  0  0  0  0  0  0  0  0
    4.9890    0.5090   18.1650 C   0  0  0  0  0  0  0  0  0  0  0  0
    3.3080    1.5290   19.6300 C   0  0  0  0  0  0  0  0  0  0  0  0
    4.7410    0.6410   21.8790 C   0  0  0  0  0  0  0  0  0  0  0  0
    6.4160   -0.3500   20.3470 C   0  0  0  0  0  0  0  0  0  0  0  0
    4.5020    0.8050   19.4540 C   0  0  0  0  0  0  0  0  0  0  0  0
    5.2280    0.3710   20.5790 C   0  0  0  0  0  0  0  0  0  0  0  0
    7.2590   -0.7500   21.4030 N   0  0  0  0  0  0  0  0  0  0  0  0
    8.6850    1.6760   24.2840 N   0  0  0  0  0  0  0  0  0  0  0  0
    7.7520    2.7950   24.5220 C   0  0  0  0  0  0  0  0  0  0  0  0
    7.9310   -2.8940   24.3280 C   0  0  0  0  0  0  0  0  0  0  0  0
    7.0790   -1.9990   22.1130 C   0  0  0  0  0  0  0  0  0  0  0  0
    8.2100    0.2600   24.3890 C   0  0  0  0  0  0  0  0  0  0  0  0
    6.8980    5.7260   22.2160 C   0  0  0  0  0  0  0  0  0  0  0  0
    7.2930    3.4540   23.1880 C   0  0  0  0  0  0  0  0  0  0  0  0
    8.2800   -2.0680   23.0650 C   0  0  0  0  0  0  0  0  0  0  0  0
    8.8170   -0.5930   23.2280 C   0  0  0  0  0  0  0  0  0  0  0  0
    6.7930    4.8270   23.3920 N   0  0  0  0  0  0  0  0  0  0  0  0
   13.5160   -2.3720   23.3060 F   0  0  0  0  0  0  0  0  0  0  0  0
    7.6880   -1.2200   18.8260 H   0  0  0  0  0  0  0  0  0  0  0  0
   14.2390    0.1200   23.6580 H   0  0  0  0  0  0  0  0  0  0  0  0
   12.6710    2.0010   24.0020 H   0  0  0  0  0  0  0  0  0  0  0  0
   10.9640   -2.5660   23.0870 H   0  0  0  0  0  0  0  0  0  0  0  0
    1.8880    2.3320   21.0550 H   0  0  0  0  0  0  0  0  0  0  0  0
    3.1530    1.5430   23.0460 H   0  0  0  0  0  0  0  0  0  0  0  0
    4.4910    0.8880   17.2770 H   0  0  0  0  0  0  0  0  0  0  0  0
    2.7250    1.8390   18.7720 H   0  0  0  0  0  0  0  0  0  0  0  0
    5.2590    0.2680   22.7570 H   0  0  0  0  0  0  0  0  0  0  0  0
    8.2850    3.5450   25.1190 H   0  0  0  0  0  0  0  0  0  0  0  0
    6.8930    2.4590   25.1130 H   0  0  0  0  0  0  0  0  0  0  0  0
    6.9570   -2.5940   24.7360 H   0  0  0  0  0  0  0  0  0  0  0  0
    8.6810   -2.8090   25.1230 H   0  0  0  0  0  0  0  0  0  0  0  0
    7.8540   -3.9560   24.0490 H   0  0  0  0  0  0  0  0  0  0  0  0
    6.1410   -1.9480   22.6770 H   0  0  0  0  0  0  0  0  0  0  0  0
    7.0730   -2.8650   21.4320 H   0  0  0  0  0  0  0  0  0  0  0  0
    7.1100    0.2260   24.3940 H   0  0  0  0  0  0  0  0  0  0  0  0
    8.5770   -0.1580   25.3340 H   0  0  0  0  0  0  0  0  0  0  0  0
    7.9480    5.8710   21.9220 H   0  0  0  0  0  0  0  0  0  0  0  0
    6.3480    5.3060   21.3660 H   0  0  0  0  0  0  0  0  0  0  0  0
    6.4750    6.7160   22.4450 H   0  0  0  0  0  0  0  0  0  0  0  0
    8.1480    3.4820   22.5060 H   0  0  0  0  0  0  0  0  0  0  0  0
    6.5290    2.8360   22.7060 H   0  0  0  0  0  0  0  0  0  0  0  0
    9.0260   -2.6140   22.4810 H   0  0  0  0  0  0  0  0  0  0  0  0
    5.8260    4.7540   23.7030 H   0  0  0  0  0  0  0  0  0  0  0  0
  4  1  2  0
  5  2  2  0
  6  3  2  0
  8  7  1  0
 11 10  1  0
 12  7  2  0
 12  9  1  0
 13  4  1  0
 13  8  2  0
 14  9  2  0
 14 13  1  0
 15  3  1  0
 16 10  2  0
 17 11  2  0
 18  6  1  0
 19 15  2  0
 19 16  1  0
 20 17  1  0
 20 18  2  0
 20 19  1  0
 21  5  1  0
 21 18  1  0
 22  4  1  0
 23 22  1  0
 25 21  1  0
 26 22  1  0
 28 23  1  0
 29 24  1  0
 29 25  1  0
 30  5  1  0
 30 14  1  0
 30 26  1  0
 30 29  1  0
 31 27  1  0
 31 28  1  0
 32 12  1  0
  6 33  1  0
  7 34  1  0
  8 35  1  0
  9 36  1  0
 10 37  1  0
 11 38  1  0
 15 39  1  0
 16 40  1  0
 17 41  1  0
 23 42  1  0
 23 43  1  0
 24 44  1  0
 24 45  1  0
 24 46  1  0
 25 47  1  0
 25 48  1  0
 26 49  1  0
 26 50  1  0
 27 51  1  0
 27 52  1  0
 27 53  1  0
 28 54  1  0
 28 55  1  0
 29 56  1  0
 31 57  1  0
M  END
>  <Favorite_cresset>
false

>  <Protein_cresset>
sars_P

>  <MW_cresset>
432.5

>  <#Atoms_cresset>
32

>  <SlogP_cresset>
3.2

>  <TPSA_cresset>
65.5

>  <Flexibility_cresset>
3.9

>  <HBA_cresset>
6

>  <HBD_cresset>
1

>  <Rof5_cresset>
0

>  <Confs_cresset>
0

>  <Poses_cresset>
0

$$$$
predicted (94)
  xed2sdf           3D
 
 64 68  0  0  0  0  0  0  0  0999 V2000
   13.0950   -2.7570   21.8690 Cl  0  0  0  0  0  0  0  0  0  0  0  0
    8.6120    0.9070   21.7590 O   0  0  0  0  0  0  0  0  0  0  0  0
    6.9780   -6.4000   21.9590 O   0  0  0  0  0  0  0  0  0  0  0  0
    6.0290   -0.1620   17.9990 N   0  0  0  0  0  0  0  0  0  0  0  0
    8.1300   -0.0840   22.2840 C   0  0  0  0  0  0  0  0  0  0  0  0
    6.5210   -5.4110   22.5150 C   0  0  0  0  0  0  0  0  0  0  0  0
    6.7510   -0.6310   19.0360 C   0  0  0  0  0  0  0  0  0  0  0  0
   12.5180   -1.6960   25.6980 C   0  0  0  0  0  0  0  0  0  0  0  0
    5.4930   -1.8750   25.4030 C   0  0  0  0  0  0  0  0  0  0  0  0
   13.0230   -2.2720   24.5290 C   0  0  0  0  0  0  0  0  0  0  0  0
    6.4840   -0.9550   25.0120 C   0  0  0  0  0  0  0  0  0  0  0  0
   11.3740   -0.8810   25.6330 C   0  0  0  0  0  0  0  0  0  0  0  0
   11.3990   -1.0130   23.2080 C   0  0  0  0  0  0  0  0  0  0  0  0
    5.5760   -3.2250   24.9940 C   0  0  0  0  0  0  0  0  0  0  0  0
    2.6260    1.3990   21.0690 C   0  0  0  0  0  0  0  0  0  0  0  0
    3.3770    0.9460   22.1600 C   0  0  0  0  0  0  0  0  0  0  0  0
   12.4720   -1.9310   23.2860 C   0  0  0  0  0  0  0  0  0  0  0  0
    7.6000   -1.4000   24.2880 C   0  0  0  0  0  0  0  0  0  0  0  0
   10.8020   -0.5370   24.3990 C   0  0  0  0  0  0  0  0  0  0  0  0
    7.7580   -2.7770   24.0460 C   0  0  0  0  0  0  0  0  0  0  0  0
    6.7190   -3.6760   24.3040 C   0  0  0  0  0  0  0  0  0  0  0  0
    4.8900    0.5080   18.2610 C   0  0  0  0  0  0  0  0  0  0  0  0
    3.1400    1.2790   19.7710 C   0  0  0  0  0  0  0  0  0  0  0  0
    4.6390    0.3620   21.9580 C   0  0  0  0  0  0  0  0  0  0  0  0
    6.3880   -0.4400   20.3800 C   0  0  0  0  0  0  0  0  0  0  0  0
    4.3960    0.6870   19.5640 C   0  0  0  0  0  0  0  0  0  0  0  0
    5.1580    0.2150   20.6520 C   0  0  0  0  0  0  0  0  0  0  0  0
    8.4100   -0.4470   23.6110 N   0  0  0  0  0  0  0  0  0  0  0  0
    7.2460   -1.0770   21.4700 C   0  0  0  0  0  0  0  0  0  0  0  0
    9.4710    0.2160   24.4010 C   0  0  0  0  0  0  0  0  0  0  0  0
    5.4710   -4.1280   20.4030 C   0  0  0  0  0  0  0  0  0  0  0  0
    5.3700   -4.6220   21.8560 C   0  0  0  0  0  0  0  0  0  0  0  0
    9.0500   -3.3940   23.5710 C   0  0  0  0  0  0  0  0  0  0  0  0
    9.3110   -4.6360   24.4490 C   0  0  0  0  0  0  0  0  0  0  0  0
    8.1270   -5.6440   24.3980 C   0  0  0  0  0  0  0  0  0  0  0  0
    6.9080   -5.0170   23.8190 N   0  0  0  0  0  0  0  0  0  0  0  0
    7.6360   -1.2180   18.7860 H   0  0  0  0  0  0  0  0  0  0  0  0
   12.9800   -1.9170   26.6550 H   0  0  0  0  0  0  0  0  0  0  0  0
    4.6300   -1.5170   25.9570 H   0  0  0  0  0  0  0  0  0  0  0  0
   13.8330   -2.9930   24.5960 H   0  0  0  0  0  0  0  0  0  0  0  0
    6.3740    0.1030   25.2390 H   0  0  0  0  0  0  0  0  0  0  0  0
   10.8910   -0.5620   26.5500 H   0  0  0  0  0  0  0  0  0  0  0  0
   10.9340   -0.7960   22.2530 H   0  0  0  0  0  0  0  0  0  0  0  0
    4.7840   -3.9190   25.2640 H   0  0  0  0  0  0  0  0  0  0  0  0
    1.6440    1.8370   21.2230 H   0  0  0  0  0  0  0  0  0  0  0  0
    2.9670    1.0330   23.1630 H   0  0  0  0  0  0  0  0  0  0  0  0
    4.3660    0.9040   17.3980 H   0  0  0  0  0  0  0  0  0  0  0  0
    2.5490    1.6070   18.9230 H   0  0  0  0  0  0  0  0  0  0  0  0
    5.1750    0.0040   22.8270 H   0  0  0  0  0  0  0  0  0  0  0  0
    7.9190   -1.8330   21.0410 H   0  0  0  0  0  0  0  0  0  0  0  0
    6.5510   -1.6290   22.1110 H   0  0  0  0  0  0  0  0  0  0  0  0
    9.1200    0.2560   25.4370 H   0  0  0  0  0  0  0  0  0  0  0  0
    9.6130    1.2520   24.0750 H   0  0  0  0  0  0  0  0  0  0  0  0
    6.2530   -3.3710   20.3200 H   0  0  0  0  0  0  0  0  0  0  0  0
    5.6140   -4.9610   19.7070 H   0  0  0  0  0  0  0  0  0  0  0  0
    4.5640   -3.6110   20.0810 H   0  0  0  0  0  0  0  0  0  0  0  0
    4.5170   -5.3070   21.8890 H   0  0  0  0  0  0  0  0  0  0  0  0
    5.1620   -3.7200   22.4310 H   0  0  0  0  0  0  0  0  0  0  0  0
    9.8680   -2.7210   23.7420 H   0  0  0  0  0  0  0  0  0  0  0  0
    9.0160   -3.6280   22.5000 H   0  0  0  0  0  0  0  0  0  0  0  0
    9.4350   -4.3080   25.4890 H   0  0  0  0  0  0  0  0  0  0  0  0
   10.2640   -5.0870   24.1800 H   0  0  0  0  0  0  0  0  0  0  0  0
    8.4250   -6.5260   23.8220 H   0  0  0  0  0  0  0  0  0  0  0  0
    7.8990   -5.9890   25.4100 H   0  0  0  0  0  0  0  0  0  0  0  0
  5  2  2  0
  6  3  2  0
  7  4  2  0
 10  8  2  0
 11  9  2  0
 12  8  1  0
 14  9  1  0
 16 15  1  0
 17  1  1  0
 17 10  1  0
 17 13  2  0
 18 11  1  0
 19 12  2  0
 19 13  1  0
 20 18  2  0
 21 14  2  0
 21 20  1  0
 22  4  1  0
 23 15  2  0
 24 16  2  0
 25  7  1  0
 26 22  2  0
 26 23  1  0
 27 24  1  0
 27 25  2  0
 27 26  1  0
 28  5  1  0
 28 18  1  0
 29  5  1  0
 29 25  1  0
 30 19  1  0
 30 28  1  0
 32  6  1  0
 32 31  1  0
 33 20  1  0
 34 33  1  0
 35 34  1  0
 36  6  1  0
 36 21  1  0
 36 35  1  0
  7 37  1  0
  8 38  1  0
  9 39  1  0
 10 40  1  0
 11 41  1  0
 12 42  1  0
 13 43  1  0
 14 44  1  0
 15 45  1  0
 16 46  1  0
 22 47  1  0
 23 48  1  0
 24 49  1  0
 29 50  1  0
 29 51  1  0
 30 52  1  0
 30 53  1  0
 31 54  1  0
 31 55  1  0
 31 56  1  0
 32 57  1  0
 32 58  1  0
 33 59  1  0
 33 60  1  0
 34 61  1  0
 34 62  1  0
 35 63  1  0
 35 64  1  0
M  END
>  <Favorite_cresset>
false

>  <Protein_cresset>
sars_P

>  <MW_cresset>
498.0

>  <#Atoms_cresset>
36

>  <SlogP_cresset>
6.4

>  <TPSA_cresset>
53.5

>  <Flexibility_cresset>
6.2

>  <HBA_cresset>
5

>  <HBD_cresset>
0

>  <Rof5_cresset>
1

>  <Confs_cresset>
0

>  <Poses_cresset>
0

$$$$
predicted (95)
  xed2sdf           3D
 
 67 71  0  0  1  0  0  0  0  0999 V2000
   10.4220    3.4090   23.7420 O   0  0  0  0  0  0  0  0  0  0  0  0
    5.8060    3.4630   24.1790 O   0  0  0  0  0  0  0  0  0  0  0  0
    8.4650    1.3630   21.4680 O   0  0  0  0  0  0  0  0  0  0  0  0
    8.1170   -4.9710   23.1080 O   0  0  0  0  0  0  0  0  0  0  0  0
    6.1640   -4.3020   24.4810 O   0  0  0  0  0  0  0  0  0  0  0  0
    6.1210   -0.1840   17.8540 N   0  0  0  0  0  0  0  0  0  0  0  0
   10.0680    2.2390   23.8030 C   0  0  0  0  0  0  0  0  0  0  0  0
    7.0170    3.5420   24.0530 C   0  0  0  0  0  0  0  0  0  0  0  0
    8.2630    0.2420   21.8600 C   0  0  0  0  0  0  0  0  0  0  0  0
    6.8280   -0.5720   18.9370 C   0  0  0  0  0  0  0  0  0  0  0  0
   13.2770    0.2850   23.3960 C   0  0  0  0  0  0  0  0  0  0  0  0
   12.3690    1.3360   23.5540 C   0  0  0  0  0  0  0  0  0  0  0  0
   11.4210   -1.2320   22.9490 C   0  0  0  0  0  0  0  0  0  0  0  0
    2.7490    1.7370   20.7650 C   0  0  0  0  0  0  0  0  0  0  0  0
    3.4940    1.3590   21.8910 C   0  0  0  0  0  0  0  0  0  0  0  0
   12.7990   -0.9980   23.1090 C   0  0  0  0  0  0  0  0  0  0  0  0
   10.9870    1.1140   23.4290 C   0  0  0  0  0  0  0  0  0  0  0  0
   10.4870   -0.1750   23.1040 C   0  0  0  0  0  0  0  0  0  0  0  0
    4.9810    0.5100   18.0460 C   0  0  0  0  0  0  0  0  0  0  0  0
    3.2410    1.4510   19.4870 C   0  0  0  0  0  0  0  0  0  0  0  0
    4.7190    0.6910   21.7440 C   0  0  0  0  0  0  0  0  0  0  0  0
    6.4400   -0.2720   20.2530 C   0  0  0  0  0  0  0  0  0  0  0  0
    4.4690    0.7880   19.3270 C   0  0  0  0  0  0  0  0  0  0  0  0
    5.2130    0.3960   20.4580 C   0  0  0  0  0  0  0  0  0  0  0  0
    7.6230    4.2970   23.0630 N   0  0  0  0  0  0  0  0  0  0  0  0
    7.3080   -0.5960   21.3290 N   0  0  0  0  0  0  0  0  0  0  0  0
    8.8230    1.8470   24.2850 N   0  0  0  0  0  0  0  0  0  0  0  0
    8.2990   -4.9820   25.6500 N   0  0  0  0  0  0  0  0  0  0  0  0
    6.9020    5.2030   22.1680 C   0  0  0  0  0  0  0  0  0  0  0  0
    9.7400   -5.3020   25.5710 C   0  0  0  0  0  0  0  0  0  0  0  0
    7.9740   -4.3330   26.9420 C   0  0  0  0  0  0  0  0  0  0  0  0
    7.9740    2.8120   25.0000 C   0  0  0  0  0  0  0  0  0  0  0  0
    7.1440   -1.7960   22.1270 C   0  0  0  0  0  0  0  0  0  0  0  0
    8.3900    0.4190   24.3070 C   0  0  0  0  0  0  0  0  0  0  0  0
    8.2440   -2.5620   24.3630 C   0  0  0  0  0  0  0  0  0  0  0  0
    8.4230   -1.8650   22.9810 C   0  0  0  0  0  0  0  0  0  0  0  0
    8.9440   -0.3770   23.0800 C   0  0  0  0  0  0  0  0  0  0  0  0
    7.6020   -4.2850   24.2810 S   0  0  0  0  0  0  0  0  0  0  0  0
   13.6690   -2.0250   22.9880 F   0  0  0  0  0  0  0  0  0  0  0  0
    7.7480   -1.1250   18.7450 H   0  0  0  0  0  0  0  0  0  0  0  0
   14.3430    0.4650   23.4990 H   0  0  0  0  0  0  0  0  0  0  0  0
   12.7350    2.3200   23.8290 H   0  0  0  0  0  0  0  0  0  0  0  0
   11.1040   -2.2430   22.7290 H   0  0  0  0  0  0  0  0  0  0  0  0
    1.7940    2.2440   20.8770 H   0  0  0  0  0  0  0  0  0  0  0  0
    3.1180    1.5840   22.8820 H   0  0  0  0  0  0  0  0  0  0  0  0
    4.4940    0.8860   17.1470 H   0  0  0  0  0  0  0  0  0  0  0  0
    2.6650    1.7430   18.6210 H   0  0  0  0  0  0  0  0  0  0  0  0
    5.2710    0.4040   22.6330 H   0  0  0  0  0  0  0  0  0  0  0  0
    8.6370    4.3210   23.0400 H   0  0  0  0  0  0  0  0  0  0  0  0
    5.8210    5.0110   22.2280 H   0  0  0  0  0  0  0  0  0  0  0  0
    7.2640    5.0530   21.1450 H   0  0  0  0  0  0  0  0  0  0  0  0
    7.1090    6.2400   22.4580 H   0  0  0  0  0  0  0  0  0  0  0  0
   10.3520   -4.3900   25.6060 H   0  0  0  0  0  0  0  0  0  0  0  0
    9.9640   -5.8290   24.6390 H   0  0  0  0  0  0  0  0  0  0  0  0
   10.0250   -5.9490   26.4080 H   0  0  0  0  0  0  0  0  0  0  0  0
    6.8900   -4.2060   27.0590 H   0  0  0  0  0  0  0  0  0  0  0  0
    8.3410   -4.9430   27.7730 H   0  0  0  0  0  0  0  0  0  0  0  0
    8.4380   -3.3390   27.0140 H   0  0  0  0  0  0  0  0  0  0  0  0
    7.4040    2.2870   25.7720 H   0  0  0  0  0  0  0  0  0  0  0  0
    8.6100    3.5630   25.4860 H   0  0  0  0  0  0  0  0  0  0  0  0
    6.2660   -1.6810   22.7710 H   0  0  0  0  0  0  0  0  0  0  0  0
    7.0220   -2.6760   21.4820 H   0  0  0  0  0  0  0  0  0  0  0  0
    7.2890    0.3720   24.3010 H   0  0  0  0  0  0  0  0  0  0  0  0
    8.7770   -0.0310   25.2350 H   0  0  0  0  0  0  0  0  0  0  0  0
    9.2110   -2.5840   24.8910 H   0  0  0  0  0  0  0  0  0  0  0  0
    7.5190   -2.0140   24.9830 H   0  0  0  0  0  0  0  0  0  0  0  0
    9.0950   -2.4530   22.3470 H   0  0  0  0  0  0  0  0  0  0  0  0
  7  1  2  0
  8  2  2  0
  9  3  2  0
 10  6  2  0
 12 11  1  0
 15 14  1  0
 16 11  2  0
 16 13  1  0
 17  7  1  0
 17 12  2  0
 18 13  2  0
 18 17  1  0
 19  6  1  0
 20 14  2  0
 21 15  2  0
 22 10  1  0
 23 19  2  0
 23 20  1  0
 24 21  1  0
 24 22  2  0
 24 23  1  0
 25  8  1  0
 26  9  1  0
 26 22  1  0
 27  7  1  0
 29 25  1  0
 30 28  1  0
 31 28  1  0
 32  8  1  0
 32 27  1  0
 33 26  1  0
 34 27  1  0
 36 33  1  0
 36 35  1  0
 37  9  1  0
 37 18  1  0
 37 34  1  0
 37 36  1  0
 38  4  2  0
 38  5  2  0
 38 28  1  0
 38 35  1  0
 39 16  1  0
 10 40  1  0
 11 41  1  0
 12 42  1  0
 13 43  1  0
 14 44  1  0
 15 45  1  0
 19 46  1  0
 20 47  1  0
 21 48  1  0
 25 49  1  0
 29 50  1  0
 29 51  1  0
 29 52  1  0
 30 53  1  0
 30 54  1  0
 30 55  1  0
 31 56  1  0
 31 57  1  0
 31 58  1  0
 32 59  1  0
 32 60  1  0
 33 61  1  0
 33 62  1  0
 34 63  1  0
 34 64  1  0
 35 65  1  0
 35 66  1  0
 36 67  1  0
M  END
>  <Favorite_cresset>
false

>  <Protein_cresset>
sars_P

>  <MW_cresset>
553.6

>  <#Atoms_cresset>
39

>  <SlogP_cresset>
1.6

>  <TPSA_cresset>
120.0

>  <Flexibility_cresset>
5.9

>  <HBA_cresset>
10

>  <HBD_cresset>
1

>  <Rof5_cresset>
1

>  <Confs_cresset>
0

>  <Poses_cresset>
0

$$$$
predicted (96)
  xed2sdf           3D
 
 37 39  0  0  0  0  0  0  0  0999 V2000
   12.2490   -3.7840   25.0670 Cl  0  0  0  0  0  0  0  0  0  0  0  0
    7.6680    1.3190   21.7520 O   0  0  0  0  0  0  0  0  0  0  0  0
    6.1410   -0.0850   17.6490 N   0  0  0  0  0  0  0  0  0  0  0  0
    7.8870    0.1270   21.9230 C   0  0  0  0  0  0  0  0  0  0  0  0
    6.8000   -0.5800   18.7090 C   0  0  0  0  0  0  0  0  0  0  0  0
   13.3490   -0.2510   23.4100 C   0  0  0  0  0  0  0  0  0  0  0  0
   13.3850   -1.5550   23.9270 C   0  0  0  0  0  0  0  0  0  0  0  0
   12.1270    0.4360   23.3180 C   0  0  0  0  0  0  0  0  0  0  0  0
   11.0160   -1.4040   24.4460 C   0  0  0  0  0  0  0  0  0  0  0  0
    2.8550    1.8620   20.6160 C   0  0  0  0  0  0  0  0  0  0  0  0
    3.5260    1.3510   21.7330 C   0  0  0  0  0  0  0  0  0  0  0  0
   12.2130   -2.1370   24.4360 C   0  0  0  0  0  0  0  0  0  0  0  0
   10.9570   -0.1350   23.8410 C   0  0  0  0  0  0  0  0  0  0  0  0
    5.0120    0.6070   17.8700 C   0  0  0  0  0  0  0  0  0  0  0  0
    3.3330    1.5810   19.3320 C   0  0  0  0  0  0  0  0  0  0  0  0
    4.6730    0.5570   21.5620 C   0  0  0  0  0  0  0  0  0  0  0  0
    6.3570   -0.4260   20.0250 C   0  0  0  0  0  0  0  0  0  0  0  0
    4.4950    0.8250   19.1530 C   0  0  0  0  0  0  0  0  0  0  0  0
    5.1740    0.3060   20.2660 C   0  0  0  0  0  0  0  0  0  0  0  0
    8.8010   -0.3260   22.8330 N   0  0  0  0  0  0  0  0  0  0  0  0
    7.2110   -0.9900   21.1350 C   0  0  0  0  0  0  0  0  0  0  0  0
    9.6400    0.5630   23.6100 C   0  0  0  0  0  0  0  0  0  0  0  0
    7.7340   -1.0990   18.5000 H   0  0  0  0  0  0  0  0  0  0  0  0
   14.2520    0.2190   23.0350 H   0  0  0  0  0  0  0  0  0  0  0  0
   14.3130   -2.1140   23.9440 H   0  0  0  0  0  0  0  0  0  0  0  0
   12.0760    1.4140   22.8410 H   0  0  0  0  0  0  0  0  0  0  0  0
   10.1300   -1.8540   24.8820 H   0  0  0  0  0  0  0  0  0  0  0  0
    1.9660    2.4750   20.7410 H   0  0  0  0  0  0  0  0  0  0  0  0
    3.1570    1.5660   22.7320 H   0  0  0  0  0  0  0  0  0  0  0  0
    4.5530    1.0540   16.9950 H   0  0  0  0  0  0  0  0  0  0  0  0
    2.8050    1.9640   18.4760 H   0  0  0  0  0  0  0  0  0  0  0  0
    5.1720    0.1690   22.4430 H   0  0  0  0  0  0  0  0  0  0  0  0
    8.9760   -1.3250   22.9010 H   0  0  0  0  0  0  0  0  0  0  0  0
    8.0060   -1.6340   20.7320 H   0  0  0  0  0  0  0  0  0  0  0  0
    6.6210   -1.6150   21.8180 H   0  0  0  0  0  0  0  0  0  0  0  0
    9.1170    0.8130   24.5420 H   0  0  0  0  0  0  0  0  0  0  0  0
    9.8060    1.4900   23.0380 H   0  0  0  0  0  0  0  0  0  0  0  0
  4  2  2  0
  5  3  2  0
  7  6  2  0
  8  6  1  0
 11 10  1  0
 12  1  1  0
 12  7  1  0
 12  9  2  0
 13  8  2  0
 13  9  1  0
 14  3  1  0
 15 10  2  0
 16 11  2  0
 17  5  1  0
 18 14  2  0
 18 15  1  0
 19 16  1  0
 19 17  2  0
 19 18  1  0
 20  4  1  0
 21  4  1  0
 21 17  1  0
 22 13  1  0
 22 20  1  0
  5 23  1  0
  6 24  1  0
  7 25  1  0
  8 26  1  0
  9 27  1  0
 10 28  1  0
 11 29  1  0
 14 30  1  0
 15 31  1  0
 16 32  1  0
 20 33  1  0
 21 34  1  0
 21 35  1  0
 22 36  1  0
 22 37  1  0
M  END
>  <Favorite_cresset>
false

>  <Protein_cresset>
sars_P

>  <MW_cresset>
310.8

>  <#Atoms_cresset>
22

>  <SlogP_cresset>
3.8

>  <TPSA_cresset>
42.0

>  <Flexibility_cresset>
4.0

>  <HBA_cresset>
3

>  <HBD_cresset>
1

>  <Rof5_cresset>
0

>  <Confs_cresset>
0

>  <Poses_cresset>
0

$$$$
