predicted
  xed2sdf           3D
 
 66 71  0  0  1  0  0  0  0  0999 V2000
  -13.6920   -2.8700  -21.8950 Cl  0  0  0  0  0  0  0  0  0  0  0  0
  -10.8180    2.7640  -24.2760 O   0  0  0  0  0  0  0  0  0  0  0  0
   -5.6480    2.5180  -24.5740 O   0  0  0  0  0  0  0  0  0  0  0  0
   -8.4680    0.9370  -21.3530 O   0  0  0  0  0  0  0  0  0  0  0  0
   -6.7200   -5.4050  -28.4870 N   0  0  0  0  0  0  0  0  0  0  0  0
   -6.7710   -3.7250  -26.7680 N   0  0  0  0  0  0  0  0  0  0  0  0
   -6.1040   -0.4490  -17.9050 N   0  0  0  0  0  0  0  0  0  0  0  0
  -10.2880    1.6840  -24.0680 C   0  0  0  0  0  0  0  0  0  0  0  0
   -6.7650    2.8040  -24.1750 C   0  0  0  0  0  0  0  0  0  0  0  0
   -8.1980   -0.1440  -21.8290 C   0  0  0  0  0  0  0  0  0  0  0  0
   -6.5080   -4.1600  -28.0140 C   0  0  0  0  0  0  0  0  0  0  0  0
   -7.2930   -6.2780  -27.6360 C   0  0  0  0  0  0  0  0  0  0  0  0
   -6.7660   -0.8820  -18.9930 C   0  0  0  0  0  0  0  0  0  0  0  0
   -7.3310   -4.6150  -25.9100 C   0  0  0  0  0  0  0  0  0  0  0  0
   -7.6350   -5.9190  -26.3240 C   0  0  0  0  0  0  0  0  0  0  0  0
  -13.2870   -0.4680  -23.0760 C   0  0  0  0  0  0  0  0  0  0  0  0
  -12.5020    0.5930  -23.5320 C   0  0  0  0  0  0  0  0  0  0  0  0
  -11.2720   -1.6810  -22.4730 C   0  0  0  0  0  0  0  0  0  0  0  0
   -2.7070    1.4860  -20.7720 C   0  0  0  0  0  0  0  0  0  0  0  0
   -3.4100    1.0560  -21.9060 C   0  0  0  0  0  0  0  0  0  0  0  0
  -12.6770   -1.5910  -22.5300 C   0  0  0  0  0  0  0  0  0  0  0  0
  -11.0860    0.5150  -23.5190 C   0  0  0  0  0  0  0  0  0  0  0  0
  -10.4430   -0.6470  -23.0010 C   0  0  0  0  0  0  0  0  0  0  0  0
   -4.9640    0.2400  -18.0810 C   0  0  0  0  0  0  0  0  0  0  0  0
   -3.2280    1.2340  -19.4950 C   0  0  0  0  0  0  0  0  0  0  0  0
   -4.6210    0.3620  -21.7750 C   0  0  0  0  0  0  0  0  0  0  0  0
   -6.3270   -0.6270  -20.3000 C   0  0  0  0  0  0  0  0  0  0  0  0
   -4.4210    0.5100  -19.3510 C   0  0  0  0  0  0  0  0  0  0  0  0
   -5.1190    0.0680  -20.4900 C   0  0  0  0  0  0  0  0  0  0  0  0
   -6.9890    3.4460  -22.9700 N   0  0  0  0  0  0  0  0  0  0  0  0
   -7.6810   -4.1490  -24.6430 N   0  0  0  0  0  0  0  0  0  0  0  0
   -7.1730   -0.9450  -21.3830 N   0  0  0  0  0  0  0  0  0  0  0  0
   -8.9260    1.4610  -24.3120 N   0  0  0  0  0  0  0  0  0  0  0  0
   -5.9510    3.9370  -22.0570 C   0  0  0  0  0  0  0  0  0  0  0  0
   -8.0450    2.4770  -24.9770 C   0  0  0  0  0  0  0  0  0  0  0  0
   -7.9770   -2.7210  -24.4820 C   0  0  0  0  0  0  0  0  0  0  0  0
   -7.0160   -2.1540  -22.1710 C   0  0  0  0  0  0  0  0  0  0  0  0
   -8.3540    0.1030  -24.2470 C   0  0  0  0  0  0  0  0  0  0  0  0
   -8.2760   -2.2180  -23.0600 C   0  0  0  0  0  0  0  0  0  0  0  0
   -8.8800   -0.7460  -23.0510 C   0  0  0  0  0  0  0  0  0  0  0  0
   -6.1320   -3.4170  -28.7210 H   0  0  0  0  0  0  0  0  0  0  0  0
   -7.4740   -7.2810  -28.0130 H   0  0  0  0  0  0  0  0  0  0  0  0
   -7.7020   -1.4140  -18.8180 H   0  0  0  0  0  0  0  0  0  0  0  0
   -8.1270   -6.6250  -25.6610 H   0  0  0  0  0  0  0  0  0  0  0  0
  -14.3700   -0.4140  -23.1240 H   0  0  0  0  0  0  0  0  0  0  0  0
  -13.0130    1.4660  -23.9280 H   0  0  0  0  0  0  0  0  0  0  0  0
  -10.8620   -2.5650  -22.0000 H   0  0  0  0  0  0  0  0  0  0  0  0
   -1.7730    2.0300  -20.8860 H   0  0  0  0  0  0  0  0  0  0  0  0
   -3.0210    1.2740  -22.8940 H   0  0  0  0  0  0  0  0  0  0  0  0
   -4.4930    0.6070  -17.1780 H   0  0  0  0  0  0  0  0  0  0  0  0
   -2.7070    1.6090  -18.6250 H   0  0  0  0  0  0  0  0  0  0  0  0
   -5.1620    0.0640  -22.6690 H   0  0  0  0  0  0  0  0  0  0  0  0
   -7.9520    3.6410  -22.7250 H   0  0  0  0  0  0  0  0  0  0  0  0
   -8.0980   -4.8070  -23.9890 H   0  0  0  0  0  0  0  0  0  0  0  0
   -4.9810    4.0300  -22.5610 H   0  0  0  0  0  0  0  0  0  0  0  0
   -5.8440    3.2260  -21.2310 H   0  0  0  0  0  0  0  0  0  0  0  0
   -6.2580    4.9170  -21.6640 H   0  0  0  0  0  0  0  0  0  0  0  0
   -7.7350    2.1100  -25.9650 H   0  0  0  0  0  0  0  0  0  0  0  0
   -8.5860    3.4210  -25.1130 H   0  0  0  0  0  0  0  0  0  0  0  0
   -8.8610   -2.4940  -25.0830 H   0  0  0  0  0  0  0  0  0  0  0  0
   -7.1240   -2.1540  -24.8680 H   0  0  0  0  0  0  0  0  0  0  0  0
   -6.1170   -2.0570  -22.7870 H   0  0  0  0  0  0  0  0  0  0  0  0
   -6.9170   -3.0360  -21.5270 H   0  0  0  0  0  0  0  0  0  0  0  0
   -7.2610    0.1730  -24.1520 H   0  0  0  0  0  0  0  0  0  0  0  0
   -8.6000   -0.3880  -25.1950 H   0  0  0  0  0  0  0  0  0  0  0  0
   -8.9660   -2.9190  -22.5900 H   0  0  0  0  0  0  0  0  0  0  0  0
  8  2  2  0
  9  3  2  0
 10  4  2  0
 11  5  2  0
 11  6  1  0
 12  5  1  0
 13  7  2  0
 14  6  2  0
 15 12  2  0
 15 14  1  0
 17 16  1  0
 20 19  1  0
 21  1  1  0
 21 16  2  0
 21 18  1  0
 22  8  1  0
 22 17  2  0
 23 18  2  0
 23 22  1  0
 24  7  1  0
 25 19  2  0
 26 20  2  0
 27 13  1  0
 28 24  2  0
 28 25  1  0
 29 26  1  0
 29 27  2  0
 29 28  1  0
 30  9  1  0
 31 14  1  0
 32 10  1  0
 32 27  1  0
 33  8  1  0
 34 30  1  0
 35  9  1  0
 35 33  1  0
 36 31  1  0
 37 32  1  0
 38 33  1  0
 39 36  1  0
 39 37  1  0
 40 10  1  0
 40 23  1  0
 40 38  1  0
 40 39  1  0
 11 41  1  0
 12 42  1  0
 13 43  1  0
 15 44  1  0
 16 45  1  0
 17 46  1  0
 18 47  1  0
 19 48  1  0
 20 49  1  0
 24 50  1  0
 25 51  1  0
 26 52  1  0
 30 53  1  0
 31 54  1  0
 34 55  1  0
 34 56  1  0
 34 57  1  0
 35 58  1  0
 35 59  1  0
 36 60  1  0
 36 61  1  0
 37 62  1  0
 37 63  1  0
 38 64  1  0
 38 65  1  0
 39 66  1  0
M  END
>  <Favorite_cresset>
false

>  <Protein_cresset>
sars_P

>  <MW_cresset>
556.0

>  <#Atoms_cresset>
40

>  <SlogP_cresset>
2.9

>  <TPSA_cresset>
120.4

>  <Flexibility_cresset>
5.1

>  <HBA_cresset>
10

>  <HBD_cresset>
2

>  <Rof5_cresset>
1

>  <Confs_cresset>
0

>  <Poses_cresset>
0

$$$$
predicted (1)
  xed2sdf           3D
 
 68 73  0  0  1  0  0  0  0  0999 V2000
  -13.7550   -2.9750  -21.7370 Cl  0  0  0  0  0  0  0  0  0  0  0  0
  -10.8920    2.4810  -24.4510 O   0  0  0  0  0  0  0  0  0  0  0  0
   -5.8090    2.3550  -24.6180 O   0  0  0  0  0  0  0  0  0  0  0  0
   -8.6840    0.7440  -21.4530 O   0  0  0  0  0  0  0  0  0  0  0  0
   -6.1820   -0.4590  -17.9510 N   0  0  0  0  0  0  0  0  0  0  0  0
   -8.7710   -6.7700  -26.7410 N   0  0  0  0  0  0  0  0  0  0  0  0
  -10.3670    1.3990  -24.2510 C   0  0  0  0  0  0  0  0  0  0  0  0
   -6.9630    2.6470  -24.3450 C   0  0  0  0  0  0  0  0  0  0  0  0
   -8.3230   -0.3150  -21.9260 C   0  0  0  0  0  0  0  0  0  0  0  0
   -8.8050   -6.1810  -25.5550 C   0  0  0  0  0  0  0  0  0  0  0  0
   -6.8560   -0.9130  -19.0300 C   0  0  0  0  0  0  0  0  0  0  0  0
  -13.3610   -0.6860  -23.1140 C   0  0  0  0  0  0  0  0  0  0  0  0
  -12.5730    0.3330  -23.6530 C   0  0  0  0  0  0  0  0  0  0  0  0
  -11.3330   -1.8980  -22.5190 C   0  0  0  0  0  0  0  0  0  0  0  0
   -2.8610    1.5150  -20.8690 C   0  0  0  0  0  0  0  0  0  0  0  0
   -3.5780    1.0750  -21.9920 C   0  0  0  0  0  0  0  0  0  0  0  0
  -12.7410   -1.7810  -22.5190 C   0  0  0  0  0  0  0  0  0  0  0  0
  -11.1590    0.2430  -23.6700 C   0  0  0  0  0  0  0  0  0  0  0  0
   -7.7190   -5.2870  -25.4340 C   0  0  0  0  0  0  0  0  0  0  0  0
  -10.5090   -0.9000  -23.1250 C   0  0  0  0  0  0  0  0  0  0  0  0
   -5.0490    0.2410  -18.1440 C   0  0  0  0  0  0  0  0  0  0  0  0
   -3.3510    1.2500  -19.5830 C   0  0  0  0  0  0  0  0  0  0  0  0
   -4.7710    0.3600  -21.8390 C   0  0  0  0  0  0  0  0  0  0  0  0
   -6.4380   -0.6650  -20.3480 C   0  0  0  0  0  0  0  0  0  0  0  0
   -7.0430   -5.2640  -26.6130 C   0  0  0  0  0  0  0  0  0  0  0  0
   -4.5350    0.5160  -19.4210 C   0  0  0  0  0  0  0  0  0  0  0  0
   -5.2480    0.0590  -20.5500 C   0  0  0  0  0  0  0  0  0  0  0  0
   -7.3030    3.4110  -23.2420 N   0  0  0  0  0  0  0  0  0  0  0  0
   -7.5460   -4.4480  -24.3590 N   0  0  0  0  0  0  0  0  0  0  0  0
   -7.2640   -1.0530  -21.4390 N   0  0  0  0  0  0  0  0  0  0  0  0
   -9.0150    1.1700  -24.5230 N   0  0  0  0  0  0  0  0  0  0  0  0
   -7.6870   -6.2200  -27.3830 N   0  0  0  0  0  0  0  0  0  0  0  0
   -6.3440    4.0380  -22.3180 C   0  0  0  0  0  0  0  0  0  0  0  0
   -8.1600    2.1930  -25.2060 C   0  0  0  0  0  0  0  0  0  0  0  0
   -7.3430   -6.6400  -28.7470 C   0  0  0  0  0  0  0  0  0  0  0  0
   -8.0250   -3.0750  -24.4650 C   0  0  0  0  0  0  0  0  0  0  0  0
   -7.0430   -2.2780  -22.1960 C   0  0  0  0  0  0  0  0  0  0  0  0
   -8.4180   -0.1730  -24.3900 C   0  0  0  0  0  0  0  0  0  0  0  0
   -8.3050   -2.4240  -23.0900 C   0  0  0  0  0  0  0  0  0  0  0  0
   -8.9440   -0.9740  -23.1610 C   0  0  0  0  0  0  0  0  0  0  0  0
   -9.6290   -6.3560  -24.8820 H   0  0  0  0  0  0  0  0  0  0  0  0
   -7.7730   -1.4690  -18.8340 H   0  0  0  0  0  0  0  0  0  0  0  0
  -14.4450   -0.6110  -23.1380 H   0  0  0  0  0  0  0  0  0  0  0  0
  -13.0840    1.1960  -24.0680 H   0  0  0  0  0  0  0  0  0  0  0  0
  -10.9150   -2.7620  -22.0140 H   0  0  0  0  0  0  0  0  0  0  0  0
   -1.9360    2.0680  -21.0020 H   0  0  0  0  0  0  0  0  0  0  0  0
   -3.2090    1.2940  -22.9870 H   0  0  0  0  0  0  0  0  0  0  0  0
   -4.5500    0.6040  -17.2480 H   0  0  0  0  0  0  0  0  0  0  0  0
   -2.8110    1.6180  -18.7180 H   0  0  0  0  0  0  0  0  0  0  0  0
   -5.3180    0.0460  -22.7240 H   0  0  0  0  0  0  0  0  0  0  0  0
   -6.2160   -4.6660  -26.9740 H   0  0  0  0  0  0  0  0  0  0  0  0
   -8.2860    3.5940  -23.0970 H   0  0  0  0  0  0  0  0  0  0  0  0
   -7.1020   -4.7820  -23.5130 H   0  0  0  0  0  0  0  0  0  0  0  0
   -5.3350    4.0740  -22.7470 H   0  0  0  0  0  0  0  0  0  0  0  0
   -6.3120    3.4500  -21.3970 H   0  0  0  0  0  0  0  0  0  0  0  0
   -6.6810    5.0580  -22.0830 H   0  0  0  0  0  0  0  0  0  0  0  0
   -7.7740    1.7960  -26.1540 H   0  0  0  0  0  0  0  0  0  0  0  0
   -8.7520    3.0870  -25.4390 H   0  0  0  0  0  0  0  0  0  0  0  0
   -6.2740   -6.4610  -28.9260 H   0  0  0  0  0  0  0  0  0  0  0  0
   -7.9360   -6.0600  -29.4620 H   0  0  0  0  0  0  0  0  0  0  0  0
   -7.5750   -7.7070  -28.8790 H   0  0  0  0  0  0  0  0  0  0  0  0
   -8.9690   -3.0920  -25.0270 H   0  0  0  0  0  0  0  0  0  0  0  0
   -7.2790   -2.4800  -25.0040 H   0  0  0  0  0  0  0  0  0  0  0  0
   -6.1360   -2.1650  -22.8040 H   0  0  0  0  0  0  0  0  0  0  0  0
   -6.9200   -3.1330  -21.5170 H   0  0  0  0  0  0  0  0  0  0  0  0
   -7.3300   -0.0700  -24.2840 H   0  0  0  0  0  0  0  0  0  0  0  0
   -8.6420   -0.7190  -25.3150 H   0  0  0  0  0  0  0  0  0  0  0  0
   -8.9860   -3.0880  -22.5490 H   0  0  0  0  0  0  0  0  0  0  0  0
  7  2  2  0
  8  3  2  0
  9  4  2  0
 10  6  2  0
 11  5  2  0
 13 12  1  0
 16 15  1  0
 17  1  1  0
 17 12  2  0
 17 14  1  0
 18  7  1  0
 18 13  2  0
 19 10  1  0
 20 14  2  0
 20 18  1  0
 21  5  1  0
 22 15  2  0
 23 16  2  0
 24 11  1  0
 25 19  2  0
 26 21  2  0
 26 22  1  0
 27 23  1  0
 27 24  2  0
 27 26  1  0
 28  8  1  0
 29 19  1  0
 30  9  1  0
 30 24  1  0
 31  7  1  0
 32  6  1  0
 32 25  1  0
 33 28  1  0
 34  8  1  0
 34 31  1  0
 35 32  1  0
 36 29  1  0
 37 30  1  0
 38 31  1  0
 39 36  1  0
 39 37  1  0
 40  9  1  0
 40 20  1  0
 40 38  1  0
 40 39  1  0
 10 41  1  0
 11 42  1  0
 12 43  1  0
 13 44  1  0
 14 45  1  0
 15 46  1  0
 16 47  1  0
 21 48  1  0
 22 49  1  0
 23 50  1  0
 25 51  1  0
 28 52  1  0
 29 53  1  0
 33 54  1  0
 33 55  1  0
 33 56  1  0
 34 57  1  0
 34 58  1  0
 35 59  1  0
 35 60  1  0
 35 61  1  0
 36 62  1  0
 36 63  1  0
 37 64  1  0
 37 65  1  0
 38 66  1  0
 38 67  1  0
 39 68  1  0
M  END
>  <Favorite_cresset>
false

>  <Protein_cresset>
sars_P

>  <MW_cresset>
558.0

>  <#Atoms_cresset>
40

>  <SlogP_cresset>
2.9

>  <TPSA_cresset>
112.5

>  <Flexibility_cresset>
5.1

>  <HBA_cresset>
10

>  <HBD_cresset>
2

>  <Rof5_cresset>
1

>  <Confs_cresset>
0

>  <Poses_cresset>
0

$$$$
predicted (2)
  xed2sdf           3D
 
 60 65  0  0  1  0  0  0  0  0999 V2000
  -10.9250    2.2790  -24.4150 O   0  0  0  0  0  0  0  0  0  0  0  0
   -8.8970    0.4780  -21.4260 O   0  0  0  0  0  0  0  0  0  0  0  0
   -5.8490    4.6540  -24.6210 N   0  0  0  0  0  0  0  0  0  0  0  0
   -7.5050    2.7210  -23.3960 N   0  0  0  0  0  0  0  0  0  0  0  0
   -6.1470   -0.4710  -18.0580 N   0  0  0  0  0  0  0  0  0  0  0  0
  -10.4360    1.1690  -24.2680 C   0  0  0  0  0  0  0  0  0  0  0  0
   -8.4270   -0.5060  -21.9600 C   0  0  0  0  0  0  0  0  0  0  0  0
   -6.7760    3.5940  -22.6850 C   0  0  0  0  0  0  0  0  0  0  0  0
   -6.5860    3.7760  -25.3410 C   0  0  0  0  0  0  0  0  0  0  0  0
   -6.8510   -0.9340  -19.1130 C   0  0  0  0  0  0  0  0  0  0  0  0
   -5.9630    4.5650  -23.2830 C   0  0  0  0  0  0  0  0  0  0  0  0
   -7.4320    2.8090  -24.7350 C   0  0  0  0  0  0  0  0  0  0  0  0
  -13.4180   -0.8500  -22.9920 C   0  0  0  0  0  0  0  0  0  0  0  0
  -12.6370    0.1600  -23.5590 C   0  0  0  0  0  0  0  0  0  0  0  0
  -11.4030   -2.1120  -22.5030 C   0  0  0  0  0  0  0  0  0  0  0  0
   -2.8400    1.3680  -21.0940 C   0  0  0  0  0  0  0  0  0  0  0  0
   -3.5810    0.9020  -22.1910 C   0  0  0  0  0  0  0  0  0  0  0  0
  -12.7990   -1.9750  -22.4550 C   0  0  0  0  0  0  0  0  0  0  0  0
  -11.2290    0.0410  -23.6330 C   0  0  0  0  0  0  0  0  0  0  0  0
  -10.5900   -1.1210  -23.1200 C   0  0  0  0  0  0  0  0  0  0  0  0
   -5.0050    0.2070  -18.2920 C   0  0  0  0  0  0  0  0  0  0  0  0
   -3.3110    1.1500  -19.7890 C   0  0  0  0  0  0  0  0  0  0  0  0
   -4.7880    0.2120  -21.9970 C   0  0  0  0  0  0  0  0  0  0  0  0
   -6.4570   -0.7310  -20.4480 C   0  0  0  0  0  0  0  0  0  0  0  0
   -4.5110    0.4410  -19.5870 C   0  0  0  0  0  0  0  0  0  0  0  0
   -5.2530   -0.0360  -20.6910 C   0  0  0  0  0  0  0  0  0  0  0  0
   -7.2940   -1.1630  -21.5170 N   0  0  0  0  0  0  0  0  0  0  0  0
   -9.1360    0.8690  -24.6920 N   0  0  0  0  0  0  0  0  0  0  0  0
   -5.2320    5.5910  -22.4270 C   0  0  0  0  0  0  0  0  0  0  0  0
   -8.3350    1.8350  -25.5250 C   0  0  0  0  0  0  0  0  0  0  0  0
   -8.1810   -3.4720  -24.3200 C   0  0  0  0  0  0  0  0  0  0  0  0
   -7.0700   -2.4150  -22.2340 C   0  0  0  0  0  0  0  0  0  0  0  0
   -8.5050   -0.4560  -24.4450 C   0  0  0  0  0  0  0  0  0  0  0  0
   -8.3870   -2.6520  -23.0200 C   0  0  0  0  0  0  0  0  0  0  0  0
   -9.0370   -1.2100  -23.1760 C   0  0  0  0  0  0  0  0  0  0  0  0
  -13.5560   -2.9220  -21.8610 F   0  0  0  0  0  0  0  0  0  0  0  0
   -6.8690    3.5520  -21.6100 H   0  0  0  0  0  0  0  0  0  0  0  0
   -6.5070    3.8730  -26.4180 H   0  0  0  0  0  0  0  0  0  0  0  0
   -7.7670   -1.4770  -18.8800 H   0  0  0  0  0  0  0  0  0  0  0  0
  -14.4980   -0.7500  -22.9540 H   0  0  0  0  0  0  0  0  0  0  0  0
  -13.1450    1.0330  -23.9530 H   0  0  0  0  0  0  0  0  0  0  0  0
  -10.9870   -2.9900  -22.0300 H   0  0  0  0  0  0  0  0  0  0  0  0
   -1.9100    1.9090  -21.2580 H   0  0  0  0  0  0  0  0  0  0  0  0
   -3.2260    1.0840  -23.1990 H   0  0  0  0  0  0  0  0  0  0  0  0
   -4.4810    0.5820  -17.4140 H   0  0  0  0  0  0  0  0  0  0  0  0
   -2.7470    1.5340  -18.9440 H   0  0  0  0  0  0  0  0  0  0  0  0
   -5.3520   -0.1210  -22.8630 H   0  0  0  0  0  0  0  0  0  0  0  0
   -4.2250    5.2510  -22.1600 H   0  0  0  0  0  0  0  0  0  0  0  0
   -5.7720    5.7760  -21.4930 H   0  0  0  0  0  0  0  0  0  0  0  0
   -5.1270    6.5600  -22.9280 H   0  0  0  0  0  0  0  0  0  0  0  0
   -7.7310    1.2660  -26.2400 H   0  0  0  0  0  0  0  0  0  0  0  0
   -9.0280    2.4180  -26.1430 H   0  0  0  0  0  0  0  0  0  0  0  0
   -9.1430   -3.6770  -24.8070 H   0  0  0  0  0  0  0  0  0  0  0  0
   -7.5230   -2.9550  -25.0290 H   0  0  0  0  0  0  0  0  0  0  0  0
   -7.7230   -4.4430  -24.0940 H   0  0  0  0  0  0  0  0  0  0  0  0
   -6.2140   -2.2960  -22.9120 H   0  0  0  0  0  0  0  0  0  0  0  0
   -6.8610   -3.2350  -21.5350 H   0  0  0  0  0  0  0  0  0  0  0  0
   -7.4150   -0.3320  -24.3400 H   0  0  0  0  0  0  0  0  0  0  0  0
   -8.7120   -1.0580  -25.3360 H   0  0  0  0  0  0  0  0  0  0  0  0
   -9.0050   -3.2690  -22.3600 H   0  0  0  0  0  0  0  0  0  0  0  0
  6  1  2  0
  7  2  2  0
  8  4  2  0
  9  3  1  0
 10  5  2  0
 11  3  2  0
 11  8  1  0
 12  4  1  0
 12  9  2  0
 14 13  1  0
 17 16  1  0
 18 13  2  0
 18 15  1  0
 19  6  1  0
 19 14  2  0
 20 15  2  0
 20 19  1  0
 21  5  1  0
 22 16  2  0
 23 17  2  0
 24 10  1  0
 25 21  2  0
 25 22  1  0
 26 23  1  0
 26 24  2  0
 26 25  1  0
 27  7  1  0
 27 24  1  0
 28  6  1  0
 29 11  1  0
 30 12  1  0
 30 28  1  0
 32 27  1  0
 33 28  1  0
 34 31  1  0
 34 32  1  0
 35  7  1  0
 35 20  1  0
 35 33  1  0
 35 34  1  0
 36 18  1  0
  8 37  1  0
  9 38  1  0
 10 39  1  0
 13 40  1  0
 14 41  1  0
 15 42  1  0
 16 43  1  0
 17 44  1  0
 21 45  1  0
 22 46  1  0
 23 47  1  0
 29 48  1  0
 29 49  1  0
 29 50  1  0
 30 51  1  0
 30 52  1  0
 31 53  1  0
 31 54  1  0
 31 55  1  0
 32 56  1  0
 32 57  1  0
 33 58  1  0
 33 59  1  0
 34 60  1  0
M  END
>  <Favorite_cresset>
false

>  <Protein_cresset>
sars_P

>  <MW_cresset>
481.5

>  <#Atoms_cresset>
36

>  <SlogP_cresset>
4.3

>  <TPSA_cresset>
79.3

>  <Flexibility_cresset>
2.9

>  <HBA_cresset>
7

>  <HBD_cresset>
0

>  <Rof5_cresset>
0

>  <Confs_cresset>
0

>  <Poses_cresset>
0

$$$$
predicted (3)
  xed2sdf           3D
 
 66 70  0  0  1  0  0  0  0  0999 V2000
  -13.6480   -2.9710  -21.6980 Cl  0  0  0  0  0  0  0  0  0  0  0  0
  -10.6980    2.3880  -24.4810 O   0  0  0  0  0  0  0  0  0  0  0  0
   -5.6610    2.4520  -24.8360 O   0  0  0  0  0  0  0  0  0  0  0  0
   -8.5960    0.5660  -21.3900 O   0  0  0  0  0  0  0  0  0  0  0  0
   -6.0850   -0.6660  -18.0050 N   0  0  0  0  0  0  0  0  0  0  0  0
   -7.9870   -4.6580  -24.2290 O   0  0  0  0  0  0  0  0  0  0  0  0
  -10.1920    1.3000  -24.2630 C   0  0  0  0  0  0  0  0  0  0  0  0
   -6.8120    2.5280  -24.4410 C   0  0  0  0  0  0  0  0  0  0  0  0
   -8.2050   -0.4500  -21.9300 C   0  0  0  0  0  0  0  0  0  0  0  0
   -6.7350   -1.1060  -19.0980 C   0  0  0  0  0  0  0  0  0  0  0  0
  -13.2210   -0.6910  -23.0900 C   0  0  0  0  0  0  0  0  0  0  0  0
  -12.4160    0.3030  -23.6480 C   0  0  0  0  0  0  0  0  0  0  0  0
  -11.2300   -1.9530  -22.5070 C   0  0  0  0  0  0  0  0  0  0  0  0
   -2.7580    1.4170  -20.8390 C   0  0  0  0  0  0  0  0  0  0  0  0
   -3.4350    0.9670  -21.9820 C   0  0  0  0  0  0  0  0  0  0  0  0
  -12.6260   -1.8040  -22.5030 C   0  0  0  0  0  0  0  0  0  0  0  0
  -11.0090    0.1720  -23.6710 C   0  0  0  0  0  0  0  0  0  0  0  0
  -10.3940   -0.9810  -23.1210 C   0  0  0  0  0  0  0  0  0  0  0  0
   -4.9660    0.0600  -18.1710 C   0  0  0  0  0  0  0  0  0  0  0  0
   -3.2690    1.1320  -19.5650 C   0  0  0  0  0  0  0  0  0  0  0  0
   -4.6170    0.2240  -21.8570 C   0  0  0  0  0  0  0  0  0  0  0  0
   -6.3000   -0.8340  -20.4030 C   0  0  0  0  0  0  0  0  0  0  0  0
   -4.4360    0.3630  -19.4350 C   0  0  0  0  0  0  0  0  0  0  0  0
   -5.1150   -0.0950  -20.5800 C   0  0  0  0  0  0  0  0  0  0  0  0
   -7.1500    3.0830  -23.2180 N   0  0  0  0  0  0  0  0  0  0  0  0
   -7.1210   -1.1860  -21.5010 N   0  0  0  0  0  0  0  0  0  0  0  0
   -8.8500    1.0390  -24.5440 N   0  0  0  0  0  0  0  0  0  0  0  0
   -6.1990    3.7270  -22.2990 C   0  0  0  0  0  0  0  0  0  0  0  0
   -8.0000    2.0210  -25.2780 C   0  0  0  0  0  0  0  0  0  0  0  0
   -8.4450   -5.2090  -26.5750 C   0  0  0  0  0  0  0  0  0  0  0  0
   -7.6410   -6.9020  -24.8940 C   0  0  0  0  0  0  0  0  0  0  0  0
   -7.5350   -5.4440  -25.3460 C   0  0  0  0  0  0  0  0  0  0  0  0
   -8.0300   -3.2390  -24.4460 C   0  0  0  0  0  0  0  0  0  0  0  0
   -6.9510   -2.4210  -22.2600 C   0  0  0  0  0  0  0  0  0  0  0  0
   -8.2760   -0.3140  -24.3930 C   0  0  0  0  0  0  0  0  0  0  0  0
   -8.2500   -2.5510  -23.0860 C   0  0  0  0  0  0  0  0  0  0  0  0
   -8.8420   -1.0930  -23.1610 C   0  0  0  0  0  0  0  0  0  0  0  0
   -7.6510   -1.6680  -18.9220 H   0  0  0  0  0  0  0  0  0  0  0  0
  -14.3010   -0.5830  -23.0840 H   0  0  0  0  0  0  0  0  0  0  0  0
  -12.9000    1.1830  -24.0560 H   0  0  0  0  0  0  0  0  0  0  0  0
  -10.8310   -2.8240  -22.0070 H   0  0  0  0  0  0  0  0  0  0  0  0
   -1.8460    1.9980  -20.9420 H   0  0  0  0  0  0  0  0  0  0  0  0
   -3.0490    1.2040  -22.9680 H   0  0  0  0  0  0  0  0  0  0  0  0
   -4.4930    0.4200  -17.2630 H   0  0  0  0  0  0  0  0  0  0  0  0
   -2.7600    1.5130  -18.6870 H   0  0  0  0  0  0  0  0  0  0  0  0
   -5.1370   -0.0980  -22.7540 H   0  0  0  0  0  0  0  0  0  0  0  0
   -8.1320    3.1030  -22.9710 H   0  0  0  0  0  0  0  0  0  0  0  0
   -5.2030    3.8090  -22.7520 H   0  0  0  0  0  0  0  0  0  0  0  0
   -6.1090    3.1260  -21.3880 H   0  0  0  0  0  0  0  0  0  0  0  0
   -6.5680    4.7310  -22.0460 H   0  0  0  0  0  0  0  0  0  0  0  0
   -7.6150    1.5670  -26.2000 H   0  0  0  0  0  0  0  0  0  0  0  0
   -8.5970    2.8980  -25.5580 H   0  0  0  0  0  0  0  0  0  0  0  0
   -9.5050   -5.3090  -26.2890 H   0  0  0  0  0  0  0  0  0  0  0  0
   -8.2200   -5.9500  -27.3570 H   0  0  0  0  0  0  0  0  0  0  0  0
   -8.2490   -4.2110  -26.9910 H   0  0  0  0  0  0  0  0  0  0  0  0
   -6.6310   -7.2850  -24.7330 H   0  0  0  0  0  0  0  0  0  0  0  0
   -8.2150   -7.0010  -23.9620 H   0  0  0  0  0  0  0  0  0  0  0  0
   -8.1240   -7.5260  -25.6550 H   0  0  0  0  0  0  0  0  0  0  0  0
   -6.4840   -5.2070  -25.5850 H   0  0  0  0  0  0  0  0  0  0  0  0
   -8.8690   -2.9880  -25.1090 H   0  0  0  0  0  0  0  0  0  0  0  0
   -7.0950   -2.8850  -24.9000 H   0  0  0  0  0  0  0  0  0  0  0  0
   -6.0770   -2.3240  -22.9160 H   0  0  0  0  0  0  0  0  0  0  0  0
   -6.8050   -3.2820  -21.5960 H   0  0  0  0  0  0  0  0  0  0  0  0
   -7.1830   -0.2390  -24.2950 H   0  0  0  0  0  0  0  0  0  0  0  0
   -8.4870   -0.8550  -25.3220 H   0  0  0  0  0  0  0  0  0  0  0  0
   -8.9040   -3.1900  -22.4900 H   0  0  0  0  0  0  0  0  0  0  0  0
  7  2  2  0
  8  3  2  0
  9  4  2  0
 10  5  2  0
 12 11  1  0
 15 14  1  0
 16  1  1  0
 16 11  2  0
 16 13  1  0
 17  7  1  0
 17 12  2  0
 18 13  2  0
 18 17  1  0
 19  5  1  0
 20 14  2  0
 21 15  2  0
 22 10  1  0
 23 19  2  0
 23 20  1  0
 24 21  1  0
 24 22  2  0
 24 23  1  0
 25  8  1  0
 26  9  1  0
 26 22  1  0
 27  7  1  0
 28 25  1  0
 29  8  1  0
 29 27  1  0
 32  6  1  0
 32 30  1  0
 32 31  1  0
 33  6  1  0
 34 26  1  0
 35 27  1  0
 36 33  1  0
 36 34  1  0
 37  9  1  0
 37 18  1  0
 37 35  1  0
 37 36  1  0
 10 38  1  0
 11 39  1  0
 12 40  1  0
 13 41  1  0
 14 42  1  0
 15 43  1  0
 19 44  1  0
 20 45  1  0
 21 46  1  0
 25 47  1  0
 28 48  1  0
 28 49  1  0
 28 50  1  0
 29 51  1  0
 29 52  1  0
 30 53  1  0
 30 54  1  0
 30 55  1  0
 31 56  1  0
 31 57  1  0
 31 58  1  0
 32 59  1  0
 33 60  1  0
 33 61  1  0
 34 62  1  0
 34 63  1  0
 35 64  1  0
 35 65  1  0
 36 66  1  0
M  END
>  <Favorite_cresset>
false

>  <Protein_cresset>
sars_P

>  <MW_cresset>
521.0

>  <#Atoms_cresset>
37

>  <SlogP_cresset>
3.4

>  <TPSA_cresset>
91.8

>  <Flexibility_cresset>
5.9

>  <HBA_cresset>
8

>  <HBD_cresset>
1

>  <Rof5_cresset>
1

>  <Confs_cresset>
0

>  <Poses_cresset>
0

$$$$
predicted (4)
  xed2sdf           3D
 
 59 64  0  0  1  0  0  0  0  0999 V2000
  -10.7600    2.3780  -24.5450 O   0  0  0  0  0  0  0  0  0  0  0  0
   -8.5170    0.6900  -21.4010 O   0  0  0  0  0  0  0  0  0  0  0  0
   -6.0990   -0.3880  -17.9170 N   0  0  0  0  0  0  0  0  0  0  0  0
   -5.7320    2.4760  -23.9450 N   0  0  0  0  0  0  0  0  0  0  0  0
  -10.2110    1.3280  -24.2480 C   0  0  0  0  0  0  0  0  0  0  0  0
   -8.1430   -0.3630  -21.8790 C   0  0  0  0  0  0  0  0  0  0  0  0
   -6.7450   -0.8660  -18.9980 C   0  0  0  0  0  0  0  0  0  0  0  0
   -5.2110    3.2170  -22.9100 C   0  0  0  0  0  0  0  0  0  0  0  0
  -13.1720   -0.7150  -22.9430 C   0  0  0  0  0  0  0  0  0  0  0  0
  -12.4030    0.3180  -23.4880 C   0  0  0  0  0  0  0  0  0  0  0  0
  -11.1390   -1.9540  -22.4660 C   0  0  0  0  0  0  0  0  0  0  0  0
   -2.5830    1.2940  -20.8050 C   0  0  0  0  0  0  0  0  0  0  0  0
   -3.2530    0.7830  -21.9240 C   0  0  0  0  0  0  0  0  0  0  0  0
  -12.5380   -1.8490  -22.4450 C   0  0  0  0  0  0  0  0  0  0  0  0
  -10.9890    0.2000  -23.5920 C   0  0  0  0  0  0  0  0  0  0  0  0
  -10.3270   -0.9490  -23.0650 C   0  0  0  0  0  0  0  0  0  0  0  0
   -4.9360    0.2670  -18.1020 C   0  0  0  0  0  0  0  0  0  0  0  0
   -3.1500    1.1530  -19.5310 C   0  0  0  0  0  0  0  0  0  0  0  0
   -4.4860    0.1390  -21.7820 C   0  0  0  0  0  0  0  0  0  0  0  0
   -6.2640   -0.7040  -20.3060 C   0  0  0  0  0  0  0  0  0  0  0  0
   -7.0050    2.8130  -24.0240 C   0  0  0  0  0  0  0  0  0  0  0  0
   -6.1690    4.0260  -22.3670 C   0  0  0  0  0  0  0  0  0  0  0  0
   -4.3570    0.4530  -19.3710 C   0  0  0  0  0  0  0  0  0  0  0  0
   -5.0310   -0.0510  -20.4990 C   0  0  0  0  0  0  0  0  0  0  0  0
   -7.0750   -1.0950  -21.3980 N   0  0  0  0  0  0  0  0  0  0  0  0
   -8.8400    1.1170  -24.4590 N   0  0  0  0  0  0  0  0  0  0  0  0
   -7.3010    3.8420  -23.1420 N   0  0  0  0  0  0  0  0  0  0  0  0
   -7.9650    2.1930  -25.0350 C   0  0  0  0  0  0  0  0  0  0  0  0
   -8.5440    4.6110  -23.0520 C   0  0  0  0  0  0  0  0  0  0  0  0
   -7.9170   -3.2980  -24.2990 C   0  0  0  0  0  0  0  0  0  0  0  0
   -6.8630   -2.3350  -22.1320 C   0  0  0  0  0  0  0  0  0  0  0  0
   -8.2220   -0.2330  -24.3200 C   0  0  0  0  0  0  0  0  0  0  0  0
   -8.1390   -2.5010  -22.9900 C   0  0  0  0  0  0  0  0  0  0  0  0
   -8.7650   -1.0410  -23.1040 C   0  0  0  0  0  0  0  0  0  0  0  0
  -13.2920   -2.8300  -21.9020 F   0  0  0  0  0  0  0  0  0  0  0  0
   -7.6980   -1.3660  -18.8180 H   0  0  0  0  0  0  0  0  0  0  0  0
   -4.1790    3.1140  -22.6020 H   0  0  0  0  0  0  0  0  0  0  0  0
  -14.2540   -0.6320  -22.8980 H   0  0  0  0  0  0  0  0  0  0  0  0
  -12.9210    1.2040  -23.8480 H   0  0  0  0  0  0  0  0  0  0  0  0
  -10.7290   -2.8290  -21.9870 H   0  0  0  0  0  0  0  0  0  0  0  0
   -1.6430    1.8190  -20.9340 H   0  0  0  0  0  0  0  0  0  0  0  0
   -2.8320    0.9200  -22.9120 H   0  0  0  0  0  0  0  0  0  0  0  0
   -4.4760    0.6750  -17.2090 H   0  0  0  0  0  0  0  0  0  0  0  0
   -2.6510    1.5940  -18.6780 H   0  0  0  0  0  0  0  0  0  0  0  0
   -5.0170   -0.1920  -22.6700 H   0  0  0  0  0  0  0  0  0  0  0  0
   -6.1090    4.7090  -21.5290 H   0  0  0  0  0  0  0  0  0  0  0  0
   -8.5800    2.9920  -25.4740 H   0  0  0  0  0  0  0  0  0  0  0  0
   -7.3720    1.7780  -25.8650 H   0  0  0  0  0  0  0  0  0  0  0  0
   -9.3890    3.9240  -22.9530 H   0  0  0  0  0  0  0  0  0  0  0  0
   -8.5040    5.2830  -22.1880 H   0  0  0  0  0  0  0  0  0  0  0  0
   -8.6810    5.2140  -23.9560 H   0  0  0  0  0  0  0  0  0  0  0  0
   -6.8620   -3.3130  -24.5910 H   0  0  0  0  0  0  0  0  0  0  0  0
   -8.5100   -2.8850  -25.1160 H   0  0  0  0  0  0  0  0  0  0  0  0
   -8.2420   -4.3400  -24.1850 H   0  0  0  0  0  0  0  0  0  0  0  0
   -5.9750   -2.2300  -22.7660 H   0  0  0  0  0  0  0  0  0  0  0  0
   -6.7240   -3.1690  -21.4300 H   0  0  0  0  0  0  0  0  0  0  0  0
   -7.1370   -0.1150  -24.1840 H   0  0  0  0  0  0  0  0  0  0  0  0
   -8.4100   -0.7790  -25.2530 H   0  0  0  0  0  0  0  0  0  0  0  0
   -8.7900   -3.1250  -22.3830 H   0  0  0  0  0  0  0  0  0  0  0  0
  5  1  2  0
  6  2  2  0
  7  3  2  0
  8  4  1  0
 10  9  1  0
 13 12  1  0
 14  9  2  0
 14 11  1  0
 15  5  1  0
 15 10  2  0
 16 11  2  0
 16 15  1  0
 17  3  1  0
 18 12  2  0
 19 13  2  0
 20  7  1  0
 21  4  2  0
 22  8  2  0
 23 17  2  0
 23 18  1  0
 24 19  1  0
 24 20  2  0
 24 23  1  0
 25  6  1  0
 25 20  1  0
 26  5  1  0
 27 21  1  0
 27 22  1  0
 28 21  1  0
 28 26  1  0
 29 27  1  0
 31 25  1  0
 32 26  1  0
 33 30  1  0
 33 31  1  0
 34  6  1  0
 34 16  1  0
 34 32  1  0
 34 33  1  0
 35 14  1  0
  7 36  1  0
  8 37  1  0
  9 38  1  0
 10 39  1  0
 11 40  1  0
 12 41  1  0
 13 42  1  0
 17 43  1  0
 18 44  1  0
 19 45  1  0
 22 46  1  0
 28 47  1  0
 28 48  1  0
 29 49  1  0
 29 50  1  0
 29 51  1  0
 30 52  1  0
 30 53  1  0
 30 54  1  0
 31 55  1  0
 31 56  1  0
 32 57  1  0
 32 58  1  0
 33 59  1  0
M  END
>  <Favorite_cresset>
false

>  <Protein_cresset>
sars_P

>  <MW_cresset>
469.5

>  <#Atoms_cresset>
35

>  <SlogP_cresset>
4.0

>  <TPSA_cresset>
71.3

>  <Flexibility_cresset>
2.9

>  <HBA_cresset>
7

>  <HBD_cresset>
0

>  <Rof5_cresset>
0

>  <Confs_cresset>
0

>  <Poses_cresset>
0

$$$$
predicted (5)
  xed2sdf           3D
 
 60 63  0  0  1  0  0  0  0  0999 V2000
  -13.1790   -2.9110  -22.0780 Cl  0  0  0  0  0  0  0  0  0  0  0  0
   -5.2960   -4.5060  -20.2440 O   0  5  0  0  0  0  0  0  0  0  0  0
   -9.9340    2.5020  -24.5600 O   0  0  0  0  0  0  0  0  0  0  0  0
   -4.9500    2.1020  -24.4600 O   0  0  0  0  0  0  0  0  0  0  0  0
   -8.2660    0.2930  -21.2750 O   0  0  0  0  0  0  0  0  0  0  0  0
   -5.2670   -5.8810  -21.9050 O   0  0  0  0  0  0  0  0  0  0  0  0
   -6.0560   -0.3180  -17.8890 N   0  0  0  0  0  0  0  0  0  0  0  0
   -5.6310   -4.8460  -21.3660 C   0  0  0  0  0  0  0  0  0  0  0  0
   -9.5120    1.3790  -24.3400 C   0  0  0  0  0  0  0  0  0  0  0  0
   -6.1260    2.3530  -24.2610 C   0  0  0  0  0  0  0  0  0  0  0  0
   -7.7760   -0.6380  -21.8990 C   0  0  0  0  0  0  0  0  0  0  0  0
   -6.9480   -4.4760  -23.5470 C   0  0  0  0  0  0  0  0  0  0  0  0
   -6.5390   -3.8620  -22.1660 C   0  0  0  0  0  0  0  0  0  0  0  0
   -6.5720   -0.9330  -18.9750 C   0  0  0  0  0  0  0  0  0  0  0  0
  -12.6450   -0.5040  -23.2110 C   0  0  0  0  0  0  0  0  0  0  0  0
  -11.8030    0.4990  -23.7110 C   0  0  0  0  0  0  0  0  0  0  0  0
  -10.7120   -1.8840  -22.7120 C   0  0  0  0  0  0  0  0  0  0  0  0
   -2.5330    1.5470  -20.6570 C   0  0  0  0  0  0  0  0  0  0  0  0
   -3.1210    0.9900  -21.7970 C   0  0  0  0  0  0  0  0  0  0  0  0
  -12.1020   -1.6940  -22.7170 C   0  0  0  0  0  0  0  0  0  0  0  0
  -10.4110    0.3080  -23.7600 C   0  0  0  0  0  0  0  0  0  0  0  0
   -9.8710   -0.8850  -23.2460 C   0  0  0  0  0  0  0  0  0  0  0  0
   -4.9460    0.4310  -18.0400 C   0  0  0  0  0  0  0  0  0  0  0  0
   -3.1410    1.3770  -19.4060 C   0  0  0  0  0  0  0  0  0  0  0  0
   -4.2910    0.2330  -21.6800 C   0  0  0  0  0  0  0  0  0  0  0  0
   -6.0160   -0.8130  -20.2640 C   0  0  0  0  0  0  0  0  0  0  0  0
   -4.3030    0.5940  -19.2770 C   0  0  0  0  0  0  0  0  0  0  0  0
   -4.8630   -0.0120  -20.4170 C   0  0  0  0  0  0  0  0  0  0  0  0
   -6.5760    3.0120  -23.1280 N   0  0  0  0  0  0  0  0  0  0  0  0
   -6.6830   -1.3620  -21.4040 N   0  0  0  0  0  0  0  0  0  0  0  0
   -8.1910    1.0120  -24.6130 N   0  0  0  0  0  0  0  0  0  0  0  0
   -5.6860    3.5620  -22.0960 C   0  0  0  0  0  0  0  0  0  0  0  0
   -5.9420   -2.4060  -22.2060 C   0  0  0  0  0  0  0  0  0  0  0  0
   -7.2260    1.9420  -25.2470 C   0  0  0  0  0  0  0  0  0  0  0  0
   -7.6930   -0.3630  -24.4210 C   0  0  0  0  0  0  0  0  0  0  0  0
   -8.3750   -1.0760  -23.2360 C   0  0  0  0  0  0  0  0  0  0  0  0
   -7.5950   -5.3640  -23.4360 H   0  0  0  0  0  0  0  0  0  0  0  0
   -7.4720   -3.7680  -24.1800 H   0  0  0  0  0  0  0  0  0  0  0  0
   -6.0840   -4.7760  -24.1360 H   0  0  0  0  0  0  0  0  0  0  0  0
   -7.4730   -3.7520  -21.6240 H   0  0  0  0  0  0  0  0  0  0  0  0
   -7.4860   -1.5030  -18.8110 H   0  0  0  0  0  0  0  0  0  0  0  0
  -13.7190   -0.3560  -23.2000 H   0  0  0  0  0  0  0  0  0  0  0  0
  -12.2400    1.4230  -24.0710 H   0  0  0  0  0  0  0  0  0  0  0  0
  -10.2870   -2.7970  -22.3000 H   0  0  0  0  0  0  0  0  0  0  0  0
   -1.6280    2.1410  -20.7520 H   0  0  0  0  0  0  0  0  0  0  0  0
   -2.6860    1.1570  -22.7780 H   0  0  0  0  0  0  0  0  0  0  0  0
   -4.6020    0.9510  -17.1500 H   0  0  0  0  0  0  0  0  0  0  0  0
   -2.7050    1.8600  -18.5460 H   0  0  0  0  0  0  0  0  0  0  0  0
   -4.7480   -0.1440  -22.5860 H   0  0  0  0  0  0  0  0  0  0  0  0
   -7.5730    3.1650  -23.0380 H   0  0  0  0  0  0  0  0  0  0  0  0
   -4.6380    3.4920  -22.4080 H   0  0  0  0  0  0  0  0  0  0  0  0
   -5.8090    2.9970  -21.1670 H   0  0  0  0  0  0  0  0  0  0  0  0
   -5.9380    4.6150  -21.9210 H   0  0  0  0  0  0  0  0  0  0  0  0
   -4.9340   -2.4560  -21.7870 H   0  0  0  0  0  0  0  0  0  0  0  0
   -5.7990   -2.0550  -23.2320 H   0  0  0  0  0  0  0  0  0  0  0  0
   -7.7370    2.8510  -25.5860 H   0  0  0  0  0  0  0  0  0  0  0  0
   -6.7600    1.4610  -26.1170 H   0  0  0  0  0  0  0  0  0  0  0  0
   -6.6050   -0.3450  -24.2700 H   0  0  0  0  0  0  0  0  0  0  0  0
   -7.8880   -0.9340  -25.3370 H   0  0  0  0  0  0  0  0  0  0  0  0
   -8.2120   -2.1360  -23.3320 H   0  0  0  0  0  0  0  0  0  0  0  0
  8  2  1  0
  8  6  2  0
  9  3  2  0
 10  4  2  0
 11  5  2  0
 13  8  1  0
 13 12  1  0
 14  7  2  0
 16 15  1  0
 19 18  1  0
 20  1  1  0
 20 15  2  0
 20 17  1  0
 21  9  1  0
 21 16  2  0
 22 17  2  0
 22 21  1  0
 23  7  1  0
 24 18  2  0
 25 19  2  0
 26 14  1  0
 27 23  2  0
 27 24  1  0
 28 25  1  0
 28 26  2  0
 28 27  1  0
 29 10  1  0
 30 11  1  0
 30 26  1  0
 31  9  1  0
 32 29  1  0
 33 13  1  0
 33 30  1  0
 34 10  1  0
 34 31  1  0
 35 31  1  0
 36 11  1  0
 36 22  1  0
 36 35  1  0
 12 37  1  0
 12 38  1  0
 12 39  1  0
 13 40  1  0
 14 41  1  0
 15 42  1  0
 16 43  1  0
 17 44  1  0
 18 45  1  0
 19 46  1  0
 23 47  1  0
 24 48  1  0
 25 49  1  0
 29 50  1  0
 32 51  1  0
 32 52  1  0
 32 53  1  0
 33 54  1  0
 33 55  1  0
 34 56  1  0
 34 57  1  0
 35 58  1  0
 35 59  1  0
 36 60  1  0
M  CHG  1   2  -1
M  END
>  <Favorite_cresset>
false

>  <Protein_cresset>
sars_P

>  <MW_cresset>
508.0

>  <#Atoms_cresset>
36

>  <SlogP_cresset>
3.0

>  <TPSA_cresset>
122.7

>  <Flexibility_cresset>
6.8

>  <HBA_cresset>
9

>  <HBD_cresset>
1

>  <Rof5_cresset>
1

>  <Confs_cresset>
0

>  <Poses_cresset>
0

$$$$
predicted (6)
  xed2sdf           3D
 
 43 45  0  0  0  0  0  0  0  0999 V2000
   -8.1340    0.5570  -21.2520 O   0  0  0  0  0  0  0  0  0  0  0  0
   -5.9850   -0.5410  -17.8240 N   0  0  0  0  0  0  0  0  0  0  0  0
   -7.9640   -0.5010  -21.8310 C   0  0  0  0  0  0  0  0  0  0  0  0
   -6.6000   -1.1430  -18.8490 C   0  0  0  0  0  0  0  0  0  0  0  0
   -2.7140    1.3270  -20.8600 C   0  0  0  0  0  0  0  0  0  0  0  0
   -3.3830    0.7600  -21.9560 C   0  0  0  0  0  0  0  0  0  0  0  0
   -4.8960    0.2020  -18.0750 C   0  0  0  0  0  0  0  0  0  0  0  0
   -3.2170    1.1470  -19.5660 C   0  0  0  0  0  0  0  0  0  0  0  0
   -4.5370   -0.0150  -21.7540 C   0  0  0  0  0  0  0  0  0  0  0  0
   -6.1730   -1.0110  -20.1770 C   0  0  0  0  0  0  0  0  0  0  0  0
   -4.3660    0.3640  -19.3610 C   0  0  0  0  0  0  0  0  0  0  0  0
   -5.0200   -0.2380  -20.4480 C   0  0  0  0  0  0  0  0  0  0  0  0
   -8.5870   -0.7780  -23.0450 N   0  0  0  0  0  0  0  0  0  0  0  0
   -7.0410   -1.5940  -21.2670 C   0  0  0  0  0  0  0  0  0  0  0  0
  -12.9360   -3.4770  -22.8440 C   0  0  0  0  0  0  0  0  0  0  0  0
   -9.4900    0.1940  -23.6880 C   0  0  0  0  0  0  0  0  0  0  0  0
   -8.7910   -2.1420  -23.5570 C   0  0  0  0  0  0  0  0  0  0  0  0
  -12.7100   -1.9740  -22.9520 C   0  0  0  0  0  0  0  0  0  0  0  0
  -10.9700   -0.1480  -23.4010 C   0  0  0  0  0  0  0  0  0  0  0  0
  -10.1820   -2.6240  -23.1440 C   0  0  0  0  0  0  0  0  0  0  0  0
  -11.3300   -1.6520  -23.6010 C   0  0  0  0  0  0  0  0  0  0  0  0
   -7.4990   -1.7130  -18.6060 H   0  0  0  0  0  0  0  0  0  0  0  0
   -1.8200    1.9250  -21.0170 H   0  0  0  0  0  0  0  0  0  0  0  0
   -3.0180    0.9290  -22.9640 H   0  0  0  0  0  0  0  0  0  0  0  0
   -4.4740    0.7090  -17.2200 H   0  0  0  0  0  0  0  0  0  0  0  0
   -2.7210    1.6180  -18.7260 H   0  0  0  0  0  0  0  0  0  0  0  0
   -5.0440   -0.4220  -22.6220 H   0  0  0  0  0  0  0  0  0  0  0  0
   -7.6660   -2.4060  -20.8740 H   0  0  0  0  0  0  0  0  0  0  0  0
   -6.4250   -2.0310  -22.0600 H   0  0  0  0  0  0  0  0  0  0  0  0
  -13.9440   -3.7580  -22.5070 H   0  0  0  0  0  0  0  0  0  0  0  0
  -12.6220   -4.0510  -23.7290 H   0  0  0  0  0  0  0  0  0  0  0  0
  -12.2620   -3.7770  -22.0630 H   0  0  0  0  0  0  0  0  0  0  0  0
   -9.3030    0.1950  -24.7700 H   0  0  0  0  0  0  0  0  0  0  0  0
   -9.2860    1.2070  -23.3160 H   0  0  0  0  0  0  0  0  0  0  0  0
   -8.0430   -2.8440  -23.1830 H   0  0  0  0  0  0  0  0  0  0  0  0
   -8.7060   -2.1330  -24.6510 H   0  0  0  0  0  0  0  0  0  0  0  0
  -13.5340   -1.4930  -23.4840 H   0  0  0  0  0  0  0  0  0  0  0  0
  -12.7880   -1.5760  -21.9460 H   0  0  0  0  0  0  0  0  0  0  0  0
  -11.6290    0.4760  -24.0180 H   0  0  0  0  0  0  0  0  0  0  0  0
  -11.1710    0.1330  -22.3700 H   0  0  0  0  0  0  0  0  0  0  0  0
  -10.3270   -3.6140  -23.5990 H   0  0  0  0  0  0  0  0  0  0  0  0
  -10.1920   -2.7650  -22.0540 H   0  0  0  0  0  0  0  0  0  0  0  0
  -11.4600   -1.8060  -24.6760 H   0  0  0  0  0  0  0  0  0  0  0  0
  3  1  2  0
  4  2  2  0
  6  5  1  0
  7  2  1  0
  8  5  2  0
  9  6  2  0
 10  4  1  0
 11  7  2  0
 11  8  1  0
 12  9  1  0
 12 10  2  0
 12 11  1  0
 13  3  1  0
 14  3  1  0
 14 10  1  0
 16 13  1  0
 17 13  1  0
 18 15  1  0
 19 16  1  0
 20 17  1  0
 21 18  1  0
 21 19  1  0
 21 20  1  0
  4 22  1  0
  5 23  1  0
  6 24  1  0
  7 25  1  0
  8 26  1  0
  9 27  1  0
 14 28  1  0
 14 29  1  0
 15 30  1  0
 15 31  1  0
 15 32  1  0
 16 33  1  0
 16 34  1  0
 17 35  1  0
 17 36  1  0
 18 37  1  0
 18 38  1  0
 19 39  1  0
 19 40  1  0
 20 41  1  0
 20 42  1  0
 21 43  1  0
M  END
>  <Favorite_cresset>
false

>  <Protein_cresset>
sars_P

>  <MW_cresset>
282.4

>  <#Atoms_cresset>
21

>  <SlogP_cresset>
3.4

>  <TPSA_cresset>
33.2

>  <Flexibility_cresset>
4.2

>  <HBA_cresset>
3

>  <HBD_cresset>
0

>  <Rof5_cresset>
0

>  <Confs_cresset>
0

>  <Poses_cresset>
0

$$$$
predicted (7)
  xed2sdf           3D
 
 44 47  0  0  0  0  0  0  0  0999 V2000
   -5.7150   -3.2170  -21.7620 O   0  0  0  0  0  0  0  0  0  0  0  0
   -8.5820    0.2980  -21.2110 O   0  0  0  0  0  0  0  0  0  0  0  0
  -11.9540   -1.4360  -24.8010 O   0  0  0  0  0  0  0  0  0  0  0  0
  -12.4350    0.6490  -23.5230 O   0  0  0  0  0  0  0  0  0  0  0  0
   -6.0470   -0.4470  -17.8490 N   0  0  0  0  0  0  0  0  0  0  0  0
   -6.6670   -2.4930  -21.9950 C   0  0  0  0  0  0  0  0  0  0  0  0
   -8.2030   -0.7650  -21.6710 C   0  0  0  0  0  0  0  0  0  0  0  0
   -6.6840   -0.9890  -18.9010 C   0  0  0  0  0  0  0  0  0  0  0  0
   -2.7250    1.4170  -20.8400 C   0  0  0  0  0  0  0  0  0  0  0  0
   -3.4100    0.8930  -21.9460 C   0  0  0  0  0  0  0  0  0  0  0  0
   -4.9300    0.2620  -18.0740 C   0  0  0  0  0  0  0  0  0  0  0  0
   -3.2240    1.2130  -19.5460 C   0  0  0  0  0  0  0  0  0  0  0  0
   -4.5820    0.1460  -21.7610 C   0  0  0  0  0  0  0  0  0  0  0  0
   -6.2420   -0.8320  -20.2190 C   0  0  0  0  0  0  0  0  0  0  0  0
   -4.3950    0.4610  -19.3560 C   0  0  0  0  0  0  0  0  0  0  0  0
   -5.0700   -0.0880  -20.4620 C   0  0  0  0  0  0  0  0  0  0  0  0
   -7.0220   -1.3620  -21.2680 N   0  0  0  0  0  0  0  0  0  0  0  0
   -7.5930   -2.6650  -23.0040 N   0  0  0  0  0  0  0  0  0  0  0  0
  -10.6200   -0.9060  -22.7630 N   0  0  0  0  0  0  0  0  0  0  0  0
   -7.7110   -3.7950  -23.9370 C   0  0  0  0  0  0  0  0  0  0  0  0
  -13.1810   -2.9520  -21.8690 C   0  0  0  0  0  0  0  0  0  0  0  0
   -9.4220   -0.7420  -23.6750 C   0  0  0  0  0  0  0  0  0  0  0  0
  -10.0280   -2.1520  -22.1560 C   0  0  0  0  0  0  0  0  0  0  0  0
   -8.6710   -1.7660  -22.7770 C   0  0  0  0  0  0  0  0  0  0  0  0
  -13.4530   -1.6250  -22.6020 C   0  0  0  0  0  0  0  0  0  0  0  0
  -12.1090   -0.7670  -23.5360 S   0  0  0  0  0  0  0  0  0  0  0  0
   -7.5900   -1.5560  -18.6840 H   0  0  0  0  0  0  0  0  0  0  0  0
   -1.8170    1.9950  -20.9860 H   0  0  0  0  0  0  0  0  0  0  0  0
   -3.0350    1.0710  -22.9490 H   0  0  0  0  0  0  0  0  0  0  0  0
   -4.4790    0.7070  -17.1980 H   0  0  0  0  0  0  0  0  0  0  0  0
   -2.7030    1.6400  -18.6980 H   0  0  0  0  0  0  0  0  0  0  0  0
   -5.1060   -0.2370  -22.6310 H   0  0  0  0  0  0  0  0  0  0  0  0
   -8.7660   -4.0330  -24.1230 H   0  0  0  0  0  0  0  0  0  0  0  0
   -7.2270   -3.5330  -24.8850 H   0  0  0  0  0  0  0  0  0  0  0  0
   -7.2130   -4.6760  -23.5150 H   0  0  0  0  0  0  0  0  0  0  0  0
  -12.2090   -3.3660  -22.0740 H   0  0  0  0  0  0  0  0  0  0  0  0
  -13.3010   -2.8700  -20.7870 H   0  0  0  0  0  0  0  0  0  0  0  0
  -13.9090   -3.7130  -22.1550 H   0  0  0  0  0  0  0  0  0  0  0  0
   -9.5790   -1.1330  -24.6840 H   0  0  0  0  0  0  0  0  0  0  0  0
   -9.0200    0.2730  -23.7400 H   0  0  0  0  0  0  0  0  0  0  0  0
  -10.0250   -2.2220  -21.0680 H   0  0  0  0  0  0  0  0  0  0  0  0
  -10.3320   -3.0960  -22.6160 H   0  0  0  0  0  0  0  0  0  0  0  0
  -14.2540   -1.8090  -23.3250 H   0  0  0  0  0  0  0  0  0  0  0  0
  -13.8450   -0.8990  -21.9060 H   0  0  0  0  0  0  0  0  0  0  0  0
  6  1  2  0
  7  2  2  0
  8  5  2  0
 10  9  1  0
 11  5  1  0
 12  9  2  0
 13 10  2  0
 14  8  1  0
 15 11  2  0
 15 12  1  0
 16 13  1  0
 16 14  2  0
 16 15  1  0
 17  6  1  0
 17  7  1  0
 17 14  1  0
 18  6  1  0
 20 18  1  0
 22 19  1  0
 23 19  1  0
 24  7  1  0
 24 18  1  0
 24 22  1  0
 24 23  1  0
 25 21  1  0
 26  3  2  0
 26  4  2  0
 26 19  1  0
 26 25  1  0
  8 27  1  0
  9 28  1  0
 10 29  1  0
 11 30  1  0
 12 31  1  0
 13 32  1  0
 20 33  1  0
 20 34  1  0
 20 35  1  0
 21 36  1  0
 21 37  1  0
 21 38  1  0
 22 39  1  0
 22 40  1  0
 23 41  1  0
 23 42  1  0
 25 43  1  0
 25 44  1  0
M  END
>  <Favorite_cresset>
false

>  <Protein_cresset>
sars_P

>  <MW_cresset>
374.4

>  <#Atoms_cresset>
26

>  <SlogP_cresset>
1.0

>  <TPSA_cresset>
90.9

>  <Flexibility_cresset>
2.3

>  <HBA_cresset>
8

>  <HBD_cresset>
0

>  <Rof5_cresset>
0

>  <Confs_cresset>
0

>  <Poses_cresset>
0

$$$$
predicted (8)
  xed2sdf           3D
 
 60 64  0  0  1  0  0  0  0  0999 V2000
  -13.7430   -2.9430  -21.7360 Cl  0  0  0  0  0  0  0  0  0  0  0  0
  -10.7120    2.5160  -24.2000 O   0  0  0  0  0  0  0  0  0  0  0  0
   -5.6140    2.2320  -24.5130 O   0  0  0  0  0  0  0  0  0  0  0  0
   -8.5210    0.5820  -21.2410 O   0  0  0  0  0  0  0  0  0  0  0  0
   -6.0530   -0.5220  -17.9750 N   0  0  0  0  0  0  0  0  0  0  0  0
   -7.6780   -4.5150  -24.4050 O   0  0  0  0  0  0  0  0  0  0  0  0
  -10.2120    1.4260  -23.9840 C   0  0  0  0  0  0  0  0  0  0  0  0
   -6.7270    2.5350  -24.1150 C   0  0  0  0  0  0  0  0  0  0  0  0
   -8.1880   -0.4400  -21.8030 C   0  0  0  0  0  0  0  0  0  0  0  0
   -6.6750   -1.0320  -19.0550 C   0  0  0  0  0  0  0  0  0  0  0  0
  -13.2880   -0.5960  -23.0200 C   0  0  0  0  0  0  0  0  0  0  0  0
  -12.4650    0.4200  -23.5140 C   0  0  0  0  0  0  0  0  0  0  0  0
  -11.3210   -1.8910  -22.4330 C   0  0  0  0  0  0  0  0  0  0  0  0
   -2.6360    1.3710  -20.8360 C   0  0  0  0  0  0  0  0  0  0  0  0
   -3.2880    0.8670  -21.9700 C   0  0  0  0  0  0  0  0  0  0  0  0
  -12.7140   -1.7330  -22.4580 C   0  0  0  0  0  0  0  0  0  0  0  0
  -11.0560    0.2880  -23.4690 C   0  0  0  0  0  0  0  0  0  0  0  0
  -10.4630   -0.8950  -22.9560 C   0  0  0  0  0  0  0  0  0  0  0  0
   -4.9350    0.1990  -18.1570 C   0  0  0  0  0  0  0  0  0  0  0  0
   -3.1840    1.1680  -19.5610 C   0  0  0  0  0  0  0  0  0  0  0  0
   -4.4850    0.1460  -21.8320 C   0  0  0  0  0  0  0  0  0  0  0  0
   -6.2160   -0.8350  -20.3710 C   0  0  0  0  0  0  0  0  0  0  0  0
   -4.3620    0.4130  -19.4210 C   0  0  0  0  0  0  0  0  0  0  0  0
   -5.0170   -0.1100  -20.5540 C   0  0  0  0  0  0  0  0  0  0  0  0
   -6.9320    3.2680  -22.9570 N   0  0  0  0  0  0  0  0  0  0  0  0
   -7.0750   -1.1770  -21.4630 N   0  0  0  0  0  0  0  0  0  0  0  0
   -8.8640    1.1620  -24.2300 N   0  0  0  0  0  0  0  0  0  0  0  0
   -7.7070   -5.1210  -25.7310 C   0  0  0  0  0  0  0  0  0  0  0  0
   -5.8590    3.7780  -22.0810 C   0  0  0  0  0  0  0  0  0  0  0  0
   -8.0040    2.1770  -24.9010 C   0  0  0  0  0  0  0  0  0  0  0  0
   -8.3250   -3.2190  -24.4010 C   0  0  0  0  0  0  0  0  0  0  0  0
   -6.9450   -2.3710  -22.3140 C   0  0  0  0  0  0  0  0  0  0  0  0
   -8.3500   -0.2260  -24.2050 C   0  0  0  0  0  0  0  0  0  0  0  0
   -8.3310   -2.5280  -22.9910 C   0  0  0  0  0  0  0  0  0  0  0  0
   -8.9080   -1.0510  -23.0060 C   0  0  0  0  0  0  0  0  0  0  0  0
   -7.5980   -1.5720  -18.8570 H   0  0  0  0  0  0  0  0  0  0  0  0
  -14.3680   -0.4870  -23.0370 H   0  0  0  0  0  0  0  0  0  0  0  0
  -12.9310    1.3190  -23.9100 H   0  0  0  0  0  0  0  0  0  0  0  0
  -10.9310   -2.7950  -21.9920 H   0  0  0  0  0  0  0  0  0  0  0  0
   -1.7120    1.9320  -20.9410 H   0  0  0  0  0  0  0  0  0  0  0  0
   -2.8730    1.0430  -22.9590 H   0  0  0  0  0  0  0  0  0  0  0  0
   -4.5060    0.6410  -17.2650 H   0  0  0  0  0  0  0  0  0  0  0  0
   -2.6950    1.5970  -18.6950 H   0  0  0  0  0  0  0  0  0  0  0  0
   -4.9930   -0.2160  -22.7160 H   0  0  0  0  0  0  0  0  0  0  0  0
   -7.8880    3.4890  -22.7120 H   0  0  0  0  0  0  0  0  0  0  0  0
   -8.7390   -5.3410  -26.0320 H   0  0  0  0  0  0  0  0  0  0  0  0
   -7.3010   -4.4400  -26.4920 H   0  0  0  0  0  0  0  0  0  0  0  0
   -7.1280   -6.0540  -25.7660 H   0  0  0  0  0  0  0  0  0  0  0  0
   -4.9540    4.0070  -22.6570 H   0  0  0  0  0  0  0  0  0  0  0  0
   -5.6170    3.0450  -21.2990 H   0  0  0  0  0  0  0  0  0  0  0  0
   -6.2110    4.7050  -21.6100 H   0  0  0  0  0  0  0  0  0  0  0  0
   -7.7230    1.8140  -25.8970 H   0  0  0  0  0  0  0  0  0  0  0  0
   -8.5700    3.1070  -25.0230 H   0  0  0  0  0  0  0  0  0  0  0  0
   -9.3700   -3.3280  -24.7160 H   0  0  0  0  0  0  0  0  0  0  0  0
   -7.8190   -2.5780  -25.1340 H   0  0  0  0  0  0  0  0  0  0  0  0
   -6.1720   -2.1930  -23.0660 H   0  0  0  0  0  0  0  0  0  0  0  0
   -6.6640   -3.2610  -21.7440 H   0  0  0  0  0  0  0  0  0  0  0  0
   -7.2540   -0.2030  -24.1540 H   0  0  0  0  0  0  0  0  0  0  0  0
   -8.6090   -0.7080  -25.1520 H   0  0  0  0  0  0  0  0  0  0  0  0
   -8.9010   -3.1370  -22.2790 H   0  0  0  0  0  0  0  0  0  0  0  0
  7  2  2  0
  8  3  2  0
  9  4  2  0
 10  5  2  0
 12 11  1  0
 15 14  1  0
 16  1  1  0
 16 11  2  0
 16 13  1  0
 17  7  1  0
 17 12  2  0
 18 13  2  0
 18 17  1  0
 19  5  1  0
 20 14  2  0
 21 15  2  0
 22 10  1  0
 23 19  2  0
 23 20  1  0
 24 21  1  0
 24 22  2  0
 24 23  1  0
 25  8  1  0
 26  9  1  0
 26 22  1  0
 27  7  1  0
 28  6  1  0
 29 25  1  0
 30  8  1  0
 30 27  1  0
 31  6  1  0
 32 26  1  0
 33 27  1  0
 34 31  1  0
 34 32  1  0
 35  9  1  0
 35 18  1  0
 35 33  1  0
 35 34  1  0
 10 36  1  0
 11 37  1  0
 12 38  1  0
 13 39  1  0
 14 40  1  0
 15 41  1  0
 19 42  1  0
 20 43  1  0
 21 44  1  0
 25 45  1  0
 28 46  1  0
 28 47  1  0
 28 48  1  0
 29 49  1  0
 29 50  1  0
 29 51  1  0
 30 52  1  0
 30 53  1  0
 31 54  1  0
 31 55  1  0
 32 56  1  0
 32 57  1  0
 33 58  1  0
 33 59  1  0
 34 60  1  0
M  END
>  <Favorite_cresset>
false

>  <Protein_cresset>
sars_P

>  <MW_cresset>
493.0

>  <#Atoms_cresset>
35

>  <SlogP_cresset>
2.7

>  <TPSA_cresset>
91.8

>  <Flexibility_cresset>
4.9

>  <HBA_cresset>
8

>  <HBD_cresset>
1

>  <Rof5_cresset>
0

>  <Confs_cresset>
0

>  <Poses_cresset>
0

$$$$
predicted (9)
  xed2sdf           3D
 
 43 45  0  0  1  0  0  0  0  0999 V2000
   -8.2380    0.5490  -21.4630 O   0  0  0  0  0  0  0  0  0  0  0  0
   -6.0590   -0.6450  -17.8750 N   0  0  0  0  0  0  0  0  0  0  0  0
   -8.1070   -0.5490  -21.9700 C   0  0  0  0  0  0  0  0  0  0  0  0
  -10.7040    0.5660  -23.6350 C   0  0  0  0  0  0  0  0  0  0  0  0
  -11.8410   -0.5160  -23.5830 C   0  0  0  0  0  0  0  0  0  0  0  0
   -6.7510   -1.1900  -18.8840 C   0  0  0  0  0  0  0  0  0  0  0  0
   -2.8360    1.1640  -20.9800 C   0  0  0  0  0  0  0  0  0  0  0  0
   -3.5520    0.6270  -22.0560 C   0  0  0  0  0  0  0  0  0  0  0  0
   -4.9510    0.0540  -18.1410 C   0  0  0  0  0  0  0  0  0  0  0  0
   -3.3110    0.9930  -19.6750 C   0  0  0  0  0  0  0  0  0  0  0  0
   -4.7330   -0.0960  -21.8290 C   0  0  0  0  0  0  0  0  0  0  0  0
   -6.3670   -1.0520  -20.2260 C   0  0  0  0  0  0  0  0  0  0  0  0
   -4.4770    0.2470  -19.4440 C   0  0  0  0  0  0  0  0  0  0  0  0
   -5.1940   -0.3100  -20.5160 C   0  0  0  0  0  0  0  0  0  0  0  0
   -8.7020   -0.8770  -23.1850 N   0  0  0  0  0  0  0  0  0  0  0  0
   -7.2560   -1.6370  -21.3090 C   0  0  0  0  0  0  0  0  0  0  0  0
   -9.2720    0.1570  -24.0600 C   0  0  0  0  0  0  0  0  0  0  0  0
   -8.9870   -2.2540  -23.5880 C   0  0  0  0  0  0  0  0  0  0  0  0
  -12.7810   -2.7550  -22.9200 C   0  0  0  0  0  0  0  0  0  0  0  0
  -10.3140   -2.6830  -22.9700 C   0  0  0  0  0  0  0  0  0  0  0  0
  -11.5710   -2.0660  -23.6170 C   0  0  0  0  0  0  0  0  0  0  0  0
  -10.6420    1.0390  -22.6490 H   0  0  0  0  0  0  0  0  0  0  0  0
  -11.0240    1.3870  -24.2910 H   0  0  0  0  0  0  0  0  0  0  0  0
  -12.5590   -0.3020  -24.3870 H   0  0  0  0  0  0  0  0  0  0  0  0
  -12.4440   -0.3090  -22.6940 H   0  0  0  0  0  0  0  0  0  0  0  0
   -7.6600   -1.7300  -18.6030 H   0  0  0  0  0  0  0  0  0  0  0  0
   -1.9190    1.7200  -21.1510 H   0  0  0  0  0  0  0  0  0  0  0  0
   -3.1960    0.7690  -23.0740 H   0  0  0  0  0  0  0  0  0  0  0  0
   -4.4520    0.4830  -17.2820 H   0  0  0  0  0  0  0  0  0  0  0  0
   -2.7710    1.4240  -18.8420 H   0  0  0  0  0  0  0  0  0  0  0  0
   -5.2720   -0.4810  -22.6830 H   0  0  0  0  0  0  0  0  0  0  0  0
   -7.9290   -2.4030  -20.9090 H   0  0  0  0  0  0  0  0  0  0  0  0
   -6.6400   -2.1370  -22.0600 H   0  0  0  0  0  0  0  0  0  0  0  0
   -9.2740   -0.1920  -25.0970 H   0  0  0  0  0  0  0  0  0  0  0  0
   -8.6260    1.0450  -24.0370 H   0  0  0  0  0  0  0  0  0  0  0  0
   -8.1870   -2.9390  -23.2870 H   0  0  0  0  0  0  0  0  0  0  0  0
   -9.0460   -2.3230  -24.6760 H   0  0  0  0  0  0  0  0  0  0  0  0
  -13.7270   -2.2500  -23.1570 H   0  0  0  0  0  0  0  0  0  0  0  0
  -12.6510   -2.7440  -21.8310 H   0  0  0  0  0  0  0  0  0  0  0  0
  -12.8780   -3.8020  -23.2250 H   0  0  0  0  0  0  0  0  0  0  0  0
  -10.3280   -2.4860  -21.8970 H   0  0  0  0  0  0  0  0  0  0  0  0
  -10.3680   -3.7730  -23.0600 H   0  0  0  0  0  0  0  0  0  0  0  0
  -11.5220   -2.3450  -24.6730 H   0  0  0  0  0  0  0  0  0  0  0  0
  3  1  2  0
  5  4  1  0
  6  2  2  0
  8  7  1  0
  9  2  1  0
 10  7  2  0
 11  8  2  0
 12  6  1  0
 13  9  2  0
 13 10  1  0
 14 11  1  0
 14 12  2  0
 14 13  1  0
 15  3  1  0
 16  3  1  0
 16 12  1  0
 17  4  1  0
 17 15  1  0
 18 15  1  0
 20 18  1  0
 21  5  1  0
 21 19  1  0
 21 20  1  0
  4 22  1  0
  4 23  1  0
  5 24  1  0
  5 25  1  0
  6 26  1  0
  7 27  1  0
  8 28  1  0
  9 29  1  0
 10 30  1  0
 11 31  1  0
 16 32  1  0
 16 33  1  0
 17 34  1  0
 17 35  1  0
 18 36  1  0
 18 37  1  0
 19 38  1  0
 19 39  1  0
 19 40  1  0
 20 41  1  0
 20 42  1  0
 21 43  1  0
M  END
>  <Favorite_cresset>
false

>  <Protein_cresset>
sars_P

>  <MW_cresset>
282.4

>  <#Atoms_cresset>
21

>  <SlogP_cresset>
3.4

>  <TPSA_cresset>
33.2

>  <Flexibility_cresset>
4.3

>  <HBA_cresset>
3

>  <HBD_cresset>
0

>  <Rof5_cresset>
0

>  <Confs_cresset>
0

>  <Poses_cresset>
0

$$$$
predicted (10)
  xed2sdf           3D
 
 56 61  0  0  1  0  0  0  0  0999 V2000
  -10.8870    2.5290  -24.1840 O   0  0  0  0  0  0  0  0  0  0  0  0
   -8.7160    0.7250  -21.4180 O   0  0  0  0  0  0  0  0  0  0  0  0
   -6.2340   -0.4130  -17.9200 N   0  0  0  0  0  0  0  0  0  0  0  0
  -10.3870    1.4250  -24.0590 C   0  0  0  0  0  0  0  0  0  0  0  0
   -8.3790   -0.3450  -21.8760 C   0  0  0  0  0  0  0  0  0  0  0  0
   -6.9320   -0.8700  -18.9780 C   0  0  0  0  0  0  0  0  0  0  0  0
  -13.3930   -0.6670  -22.9250 C   0  0  0  0  0  0  0  0  0  0  0  0
  -12.6040    0.3770  -23.4250 C   0  0  0  0  0  0  0  0  0  0  0  0
  -11.3820   -1.9500  -22.4890 C   0  0  0  0  0  0  0  0  0  0  0  0
   -2.8680    1.3310  -20.9140 C   0  0  0  0  0  0  0  0  0  0  0  0
   -3.5870    0.8650  -22.0210 C   0  0  0  0  0  0  0  0  0  0  0  0
  -12.7800   -1.8270  -22.4580 C   0  0  0  0  0  0  0  0  0  0  0  0
  -11.1940    0.2600  -23.5080 C   0  0  0  0  0  0  0  0  0  0  0  0
  -10.5630   -0.9220  -23.0400 C   0  0  0  0  0  0  0  0  0  0  0  0
   -5.0790    0.2360  -18.1370 C   0  0  0  0  0  0  0  0  0  0  0  0
   -3.3640    1.1350  -19.6180 C   0  0  0  0  0  0  0  0  0  0  0  0
   -4.8040    0.2000  -21.8290 C   0  0  0  0  0  0  0  0  0  0  0  0
   -6.5130   -0.6910  -20.3010 C   0  0  0  0  0  0  0  0  0  0  0  0
   -7.2630    2.8520  -24.0200 C   0  0  0  0  0  0  0  0  0  0  0  0
   -7.6900    3.3170  -22.8200 C   0  0  0  0  0  0  0  0  0  0  0  0
   -5.5830    3.7020  -22.8740 C   0  0  0  0  0  0  0  0  0  0  0  0
   -4.5690    0.4460  -19.4240 C   0  0  0  0  0  0  0  0  0  0  0  0
   -5.2970   -0.0250  -20.5310 C   0  0  0  0  0  0  0  0  0  0  0  0
   -7.3460   -1.1000  -21.3690 N   0  0  0  0  0  0  0  0  0  0  0  0
   -9.0680    1.1660  -24.4470 N   0  0  0  0  0  0  0  0  0  0  0  0
   -5.9090    3.1130  -24.0830 N   0  0  0  0  0  0  0  0  0  0  0  0
   -6.6470    3.8480  -22.1080 N   0  0  0  0  0  0  0  0  0  0  0  0
   -8.1790    2.2220  -25.0350 C   0  0  0  0  0  0  0  0  0  0  0  0
   -8.2600   -3.2850  -24.3060 C   0  0  0  0  0  0  0  0  0  0  0  0
   -7.1440   -2.3540  -22.0780 C   0  0  0  0  0  0  0  0  0  0  0  0
   -8.4680   -0.1820  -24.3230 C   0  0  0  0  0  0  0  0  0  0  0  0
   -8.3980   -2.4710  -22.9820 C   0  0  0  0  0  0  0  0  0  0  0  0
   -9.0090   -1.0060  -23.0990 C   0  0  0  0  0  0  0  0  0  0  0  0
  -13.5390   -2.8110  -21.9290 F   0  0  0  0  0  0  0  0  0  0  0  0
   -7.8640   -1.3850  -18.7630 H   0  0  0  0  0  0  0  0  0  0  0  0
  -14.4740   -0.5720  -22.8700 H   0  0  0  0  0  0  0  0  0  0  0  0
  -13.1100    1.2780  -23.7540 H   0  0  0  0  0  0  0  0  0  0  0  0
  -10.9640   -2.8420  -22.0390 H   0  0  0  0  0  0  0  0  0  0  0  0
   -1.9300    1.8580  -21.0620 H   0  0  0  0  0  0  0  0  0  0  0  0
   -3.2150    1.0320  -23.0300 H   0  0  0  0  0  0  0  0  0  0  0  0
   -4.5650    0.6130  -17.2580 H   0  0  0  0  0  0  0  0  0  0  0  0
   -2.8140    1.5240  -18.7700 H   0  0  0  0  0  0  0  0  0  0  0  0
   -5.3530   -0.1330  -22.6990 H   0  0  0  0  0  0  0  0  0  0  0  0
   -8.6940    3.2890  -22.4420 H   0  0  0  0  0  0  0  0  0  0  0  0
   -4.5690    3.9970  -22.6160 H   0  0  0  0  0  0  0  0  0  0  0  0
   -5.2800    2.9210  -24.8460 H   0  0  0  0  0  0  0  0  0  0  0  0
   -8.7810    3.0220  -25.4820 H   0  0  0  0  0  0  0  0  0  0  0  0
   -7.5810    1.7990  -25.8460 H   0  0  0  0  0  0  0  0  0  0  0  0
   -7.2130   -3.3730  -24.6210 H   0  0  0  0  0  0  0  0  0  0  0  0
   -8.8160   -2.8030  -25.1190 H   0  0  0  0  0  0  0  0  0  0  0  0
   -8.6630   -4.3080  -24.2000 H   0  0  0  0  0  0  0  0  0  0  0  0
   -6.2230   -2.3020  -22.6710 H   0  0  0  0  0  0  0  0  0  0  0  0
   -7.0610   -3.1730  -21.3480 H   0  0  0  0  0  0  0  0  0  0  0  0
   -7.3840   -0.0580  -24.2170 H   0  0  0  0  0  0  0  0  0  0  0  0
   -8.6500   -0.7150  -25.2610 H   0  0  0  0  0  0  0  0  0  0  0  0
   -9.0310   -3.0860  -22.3450 H   0  0  0  0  0  0  0  0  0  0  0  0
  4  1  2  0
  5  2  2  0
  6  3  2  0
  8  7  1  0
 11 10  1  0
 12  7  2  0
 12  9  1  0
 13  4  1  0
 13  8  2  0
 14  9  2  0
 14 13  1  0
 15  3  1  0
 16 10  2  0
 17 11  2  0
 18  6  1  0
 20 19  2  0
 22 15  2  0
 22 16  1  0
 23 17  1  0
 23 18  2  0
 23 22  1  0
 24  5  1  0
 24 18  1  0
 25  4  1  0
 26 19  1  0
 26 21  1  0
 27 20  1  0
 27 21  2  0
 28 19  1  0
 28 25  1  0
 30 24  1  0
 31 25  1  0
 32 29  1  0
 32 30  1  0
 33  5  1  0
 33 14  1  0
 33 31  1  0
 33 32  1  0
 34 12  1  0
  6 35  1  0
  7 36  1  0
  8 37  1  0
  9 38  1  0
 10 39  1  0
 11 40  1  0
 15 41  1  0
 16 42  1  0
 17 43  1  0
 20 44  1  0
 21 45  1  0
 26 46  1  0
 28 47  1  0
 28 48  1  0
 29 49  1  0
 29 50  1  0
 29 51  1  0
 30 52  1  0
 30 53  1  0
 31 54  1  0
 31 55  1  0
 32 56  1  0
M  END
>  <Favorite_cresset>
false

>  <Protein_cresset>
sars_P

>  <MW_cresset>
455.5

>  <#Atoms_cresset>
34

>  <SlogP_cresset>
3.9

>  <TPSA_cresset>
82.2

>  <Flexibility_cresset>
2.9

>  <HBA_cresset>
7

>  <HBD_cresset>
1

>  <Rof5_cresset>
0

>  <Confs_cresset>
0

>  <Poses_cresset>
0

$$$$
predicted (11)
  xed2sdf           3D
 
 48 52  0  0  0  0  0  0  0  0999 V2000
   -5.5370   -3.3430  -21.5380 O   0  0  0  0  0  0  0  0  0  0  0  0
   -7.4390    0.7960  -21.1510 O   0  0  0  0  0  0  0  0  0  0  0  0
  -11.3780    1.9110  -22.9590 O   0  0  0  0  0  0  0  0  0  0  0  0
  -10.3280    1.3200  -25.2090 O   0  0  0  0  0  0  0  0  0  0  0  0
   -5.7730   -0.1810  -17.7110 N   0  0  0  0  0  0  0  0  0  0  0  0
   -6.2590   -2.4080  -21.8300 C   0  0  0  0  0  0  0  0  0  0  0  0
   -7.2740   -0.3140  -21.6420 C   0  0  0  0  0  0  0  0  0  0  0  0
   -6.1720   -0.9340  -18.7490 C   0  0  0  0  0  0  0  0  0  0  0  0
  -12.5370   -3.1660  -23.1550 C   0  0  0  0  0  0  0  0  0  0  0  0
  -13.2940   -2.0650  -22.7170 C   0  0  0  0  0  0  0  0  0  0  0  0
  -11.4840   -2.9990  -24.0720 C   0  0  0  0  0  0  0  0  0  0  0  0
  -12.8910   -0.7610  -23.0650 C   0  0  0  0  0  0  0  0  0  0  0  0
  -11.1820   -1.7120  -24.5390 C   0  0  0  0  0  0  0  0  0  0  0  0
   -2.4460    1.8990  -20.5800 C   0  0  0  0  0  0  0  0  0  0  0  0
   -2.9940    1.2630  -21.6980 C   0  0  0  0  0  0  0  0  0  0  0  0
  -11.7990   -0.5880  -23.9500 C   0  0  0  0  0  0  0  0  0  0  0  0
   -4.7610    0.6830  -17.9170 C   0  0  0  0  0  0  0  0  0  0  0  0
   -3.0060    1.6790  -19.3170 C   0  0  0  0  0  0  0  0  0  0  0  0
   -4.0360    0.3390  -21.5320 C   0  0  0  0  0  0  0  0  0  0  0  0
   -5.6150   -0.8140  -20.0290 C   0  0  0  0  0  0  0  0  0  0  0  0
   -4.0830    0.8030  -19.1460 C   0  0  0  0  0  0  0  0  0  0  0  0
   -4.5520    0.0780  -20.2440 C   0  0  0  0  0  0  0  0  0  0  0  0
   -6.3800   -1.2190  -21.1220 N   0  0  0  0  0  0  0  0  0  0  0  0
   -7.1080   -2.3330  -22.9210 N   0  0  0  0  0  0  0  0  0  0  0  0
   -9.4050    0.2820  -23.1420 N   0  0  0  0  0  0  0  0  0  0  0  0
   -7.1770   -3.2180  -24.1070 C   0  0  0  0  0  0  0  0  0  0  0  0
   -9.2970   -0.9520  -22.2750 C   0  0  0  0  0  0  0  0  0  0  0  0
   -8.0440    0.1010  -23.7880 C   0  0  0  0  0  0  0  0  0  0  0  0
   -7.8630   -1.1230  -22.8250 C   0  0  0  0  0  0  0  0  0  0  0  0
  -10.7920    0.9270  -23.8780 S   0  0  0  0  0  0  0  0  0  0  0  0
   -7.0550   -1.5530  -18.5850 H   0  0  0  0  0  0  0  0  0  0  0  0
  -12.8800   -4.1580  -22.9210 H   0  0  0  0  0  0  0  0  0  0  0  0
  -14.1630   -2.2370  -22.0810 H   0  0  0  0  0  0  0  0  0  0  0  0
  -10.9350   -3.8630  -24.4370 H   0  0  0  0  0  0  0  0  0  0  0  0
  -13.3580    0.1000  -22.5830 H   0  0  0  0  0  0  0  0  0  0  0  0
  -10.3320   -1.5930  -25.2000 H   0  0  0  0  0  0  0  0  0  0  0  0
   -1.6160    2.5900  -20.6940 H   0  0  0  0  0  0  0  0  0  0  0  0
   -2.6130    1.4850  -22.6890 H   0  0  0  0  0  0  0  0  0  0  0  0
   -4.5540    1.3600  -17.0960 H   0  0  0  0  0  0  0  0  0  0  0  0
   -2.5970    2.1920  -18.4710 H   0  0  0  0  0  0  0  0  0  0  0  0
   -4.4480   -0.1510  -22.4100 H   0  0  0  0  0  0  0  0  0  0  0  0
   -8.2220   -3.4110  -24.3850 H   0  0  0  0  0  0  0  0  0  0  0  0
   -6.6620   -2.7480  -24.9570 H   0  0  0  0  0  0  0  0  0  0  0  0
   -6.6870   -4.1790  -23.8930 H   0  0  0  0  0  0  0  0  0  0  0  0
   -9.4460   -0.7870  -21.2060 H   0  0  0  0  0  0  0  0  0  0  0  0
   -9.9050   -1.8080  -22.5440 H   0  0  0  0  0  0  0  0  0  0  0  0
   -8.0810   -0.1830  -24.8450 H   0  0  0  0  0  0  0  0  0  0  0  0
   -7.3430    0.9430  -23.6910 H   0  0  0  0  0  0  0  0  0  0  0  0
  6  1  2  0
  7  2  2  0
  8  5  2  0
 10  9  2  0
 11  9  1  0
 12 10  1  0
 13 11  2  0
 15 14  1  0
 16 12  2  0
 16 13  1  0
 17  5  1  0
 18 14  2  0
 19 15  2  0
 20  8  1  0
 21 17  2  0
 21 18  1  0
 22 19  1  0
 22 20  2  0
 22 21  1  0
 23  6  1  0
 23  7  1  0
 23 20  1  0
 24  6  1  0
 26 24  1  0
 27 25  1  0
 28 25  1  0
 29  7  1  0
 29 24  1  0
 29 27  1  0
 29 28  1  0
 30  3  2  0
 30  4  2  0
 30 16  1  0
 30 25  1  0
  8 31  1  0
  9 32  1  0
 10 33  1  0
 11 34  1  0
 12 35  1  0
 13 36  1  0
 14 37  1  0
 15 38  1  0
 17 39  1  0
 18 40  1  0
 19 41  1  0
 26 42  1  0
 26 43  1  0
 26 44  1  0
 27 45  1  0
 27 46  1  0
 28 47  1  0
 28 48  1  0
M  END
>  <Favorite_cresset>
false

>  <Protein_cresset>
sars_P

>  <MW_cresset>
422.5

>  <#Atoms_cresset>
30

>  <SlogP_cresset>
2.1

>  <TPSA_cresset>
90.9

>  <Flexibility_cresset>
2.3

>  <HBA_cresset>
8

>  <HBD_cresset>
0

>  <Rof5_cresset>
0

>  <Confs_cresset>
0

>  <Poses_cresset>
0

$$$$
predicted (12)
  xed2sdf           3D
 
 75 81  0  0  1  0  0  0  0  0999 V2000
  -13.4760   -3.0580  -21.9080 Cl  0  0  0  0  0  0  0  0  0  0  0  0
  -10.6760    2.5540  -24.2500 O   0  0  0  0  0  0  0  0  0  0  0  0
   -8.5000    0.6860  -21.3640 O   0  0  0  0  0  0  0  0  0  0  0  0
   -8.5000   -5.9890  -25.0650 N   0  0  0  0  0  0  0  0  0  0  0  0
   -7.3170   -4.8060  -26.8000 N   0  0  0  0  0  0  0  0  0  0  0  0
   -5.9760   -0.6280  -17.8970 N   0  0  0  0  0  0  0  0  0  0  0  0
   -6.0690    6.9950  -22.7560 O   0  0  0  0  0  0  0  0  0  0  0  0
  -10.1310    1.4680  -24.1410 C   0  0  0  0  0  0  0  0  0  0  0  0
   -8.1050   -0.3390  -21.8820 C   0  0  0  0  0  0  0  0  0  0  0  0
   -7.6130   -5.0730  -25.5120 C   0  0  0  0  0  0  0  0  0  0  0  0
   -9.1370   -6.7160  -26.0110 C   0  0  0  0  0  0  0  0  0  0  0  0
   -7.9340   -5.5600  -27.7290 C   0  0  0  0  0  0  0  0  0  0  0  0
   -6.6600   -1.0440  -18.9780 C   0  0  0  0  0  0  0  0  0  0  0  0
   -8.8770   -6.5330  -27.3780 C   0  0  0  0  0  0  0  0  0  0  0  0
  -13.0740   -0.7080  -23.1290 C   0  0  0  0  0  0  0  0  0  0  0  0
  -12.3050    0.3440  -23.6120 C   0  0  0  0  0  0  0  0  0  0  0  0
  -11.0330   -1.9190  -22.5930 C   0  0  0  0  0  0  0  0  0  0  0  0
   -2.7670    1.5620  -20.7970 C   0  0  0  0  0  0  0  0  0  0  0  0
   -3.4800    1.1400  -21.9250 C   0  0  0  0  0  0  0  0  0  0  0  0
  -12.4450   -1.8290  -22.6030 C   0  0  0  0  0  0  0  0  0  0  0  0
  -10.8940    0.2640  -23.6450 C   0  0  0  0  0  0  0  0  0  0  0  0
  -10.2250   -0.8950  -23.1660 C   0  0  0  0  0  0  0  0  0  0  0  0
   -4.8720    0.1130  -18.0840 C   0  0  0  0  0  0  0  0  0  0  0  0
   -3.2300    1.2370  -19.5150 C   0  0  0  0  0  0  0  0  0  0  0  0
   -4.6490    0.3850  -21.7700 C   0  0  0  0  0  0  0  0  0  0  0  0
   -6.2710   -0.7380  -20.2860 C   0  0  0  0  0  0  0  0  0  0  0  0
   -4.3870    0.4560  -19.3560 C   0  0  0  0  0  0  0  0  0  0  0  0
   -5.1020    0.0230  -20.4870 C   0  0  0  0  0  0  0  0  0  0  0  0
   -7.0570   -4.2270  -24.5760 N   0  0  0  0  0  0  0  0  0  0  0  0
   -7.0940   -1.1200  -21.3640 N   0  0  0  0  0  0  0  0  0  0  0  0
   -8.7780    1.2940  -24.4150 N   0  0  0  0  0  0  0  0  0  0  0  0
   -6.9080    6.7780  -23.9140 C   0  0  0  0  0  0  0  0  0  0  0  0
   -5.0700    5.9690  -22.5490 C   0  0  0  0  0  0  0  0  0  0  0  0
   -7.8990    2.4510  -24.6750 C   0  0  0  0  0  0  0  0  0  0  0  0
   -7.4420   -2.8100  -24.5960 C   0  0  0  0  0  0  0  0  0  0  0  0
   -6.8250   -2.3220  -22.1330 C   0  0  0  0  0  0  0  0  0  0  0  0
   -8.1190   -0.0200  -24.3430 C   0  0  0  0  0  0  0  0  0  0  0  0
   -7.6330    5.4150  -23.7510 C   0  0  0  0  0  0  0  0  0  0  0  0
   -5.7870    4.6090  -22.3470 C   0  0  0  0  0  0  0  0  0  0  0  0
   -7.3130    2.9740  -23.3510 C   0  0  0  0  0  0  0  0  0  0  0  0
   -7.9500   -2.3520  -23.2080 C   0  0  0  0  0  0  0  0  0  0  0  0
   -8.6530   -0.9250  -23.1860 C   0  0  0  0  0  0  0  0  0  0  0  0
   -6.6750    4.3030  -23.4910 N   0  0  0  0  0  0  0  0  0  0  0  0
   -9.8610   -7.4540  -25.6690 H   0  0  0  0  0  0  0  0  0  0  0  0
   -7.6530   -5.3930  -28.7630 H   0  0  0  0  0  0  0  0  0  0  0  0
   -7.5660   -1.6160  -18.7940 H   0  0  0  0  0  0  0  0  0  0  0  0
   -9.3990   -7.1030  -28.1400 H   0  0  0  0  0  0  0  0  0  0  0  0
  -14.1590   -0.6460  -23.1410 H   0  0  0  0  0  0  0  0  0  0  0  0
  -12.8270    1.2290  -23.9590 H   0  0  0  0  0  0  0  0  0  0  0  0
  -10.5810   -2.7700  -22.1030 H   0  0  0  0  0  0  0  0  0  0  0  0
   -1.8630    2.1530  -20.9190 H   0  0  0  0  0  0  0  0  0  0  0  0
   -3.1330    1.4050  -22.9190 H   0  0  0  0  0  0  0  0  0  0  0  0
   -4.3860    0.4620  -17.1840 H   0  0  0  0  0  0  0  0  0  0  0  0
   -2.6840    1.5980  -18.6540 H   0  0  0  0  0  0  0  0  0  0  0  0
   -5.1960    0.0890  -22.6560 H   0  0  0  0  0  0  0  0  0  0  0  0
   -6.6720   -4.6310  -23.7260 H   0  0  0  0  0  0  0  0  0  0  0  0
   -6.3100    6.7830  -24.8350 H   0  0  0  0  0  0  0  0  0  0  0  0
   -7.6530    7.5830  -23.9890 H   0  0  0  0  0  0  0  0  0  0  0  0
   -4.4680    6.2070  -21.6610 H   0  0  0  0  0  0  0  0  0  0  0  0
   -4.3950    5.9080  -23.4120 H   0  0  0  0  0  0  0  0  0  0  0  0
   -8.4620    3.2360  -25.1880 H   0  0  0  0  0  0  0  0  0  0  0  0
   -7.0780    2.1630  -25.3440 H   0  0  0  0  0  0  0  0  0  0  0  0
   -6.5920   -2.1930  -24.9190 H   0  0  0  0  0  0  0  0  0  0  0  0
   -8.2530   -2.6790  -25.3310 H   0  0  0  0  0  0  0  0  0  0  0  0
   -5.8300   -2.2350  -22.5970 H   0  0  0  0  0  0  0  0  0  0  0  0
   -6.8440   -3.1970  -21.4610 H   0  0  0  0  0  0  0  0  0  0  0  0
   -7.0480    0.1450  -24.1730 H   0  0  0  0  0  0  0  0  0  0  0  0
   -8.2440   -0.5170  -25.3150 H   0  0  0  0  0  0  0  0  0  0  0  0
   -8.3450    5.4940  -22.9190 H   0  0  0  0  0  0  0  0  0  0  0  0
   -8.2040    5.2290  -24.6680 H   0  0  0  0  0  0  0  0  0  0  0  0
   -5.0310    3.8210  -22.2390 H   0  0  0  0  0  0  0  0  0  0  0  0
   -6.3740    4.6370  -21.4200 H   0  0  0  0  0  0  0  0  0  0  0  0
   -8.1180    3.0200  -22.6050 H   0  0  0  0  0  0  0  0  0  0  0  0
   -6.5830    2.2340  -23.0010 H   0  0  0  0  0  0  0  0  0  0  0  0
   -8.6510   -3.1070  -22.8620 H   0  0  0  0  0  0  0  0  0  0  0  0
  8  2  2  0
  9  3  2  0
 10  4  2  0
 10  5  1  0
 11  4  1  0
 12  5  2  0
 13  6  2  0
 14 11  2  0
 14 12  1  0
 16 15  1  0
 19 18  1  0
 20  1  1  0
 20 15  2  0
 20 17  1  0
 21  8  1  0
 21 16  2  0
 22 17  2  0
 22 21  1  0
 23  6  1  0
 24 18  2  0
 25 19  2  0
 26 13  1  0
 27 23  2  0
 27 24  1  0
 28 25  1  0
 28 26  2  0
 28 27  1  0
 29 10  1  0
 30  9  1  0
 30 26  1  0
 31  8  1  0
 32  7  1  0
 33  7  1  0
 34 31  1  0
 35 29  1  0
 36 30  1  0
 37 31  1  0
 38 32  1  0
 39 33  1  0
 40 34  1  0
 41 35  1  0
 41 36  1  0
 42  9  1  0
 42 22  1  0
 42 37  1  0
 42 41  1  0
 43 38  1  0
 43 39  1  0
 43 40  1  0
 11 44  1  0
 12 45  1  0
 13 46  1  0
 14 47  1  0
 15 48  1  0
 16 49  1  0
 17 50  1  0
 18 51  1  0
 19 52  1  0
 23 53  1  0
 24 54  1  0
 25 55  1  0
 29 56  1  0
 32 57  1  0
 32 58  1  0
 33 59  1  0
 33 60  1  0
 34 61  1  0
 34 62  1  0
 35 63  1  0
 35 64  1  0
 36 65  1  0
 36 66  1  0
 37 67  1  0
 37 68  1  0
 38 69  1  0
 38 70  1  0
 39 71  1  0
 39 72  1  0
 40 73  1  0
 40 74  1  0
 41 75  1  0
M  END
>  <Favorite_cresset>
false

>  <Protein_cresset>
sars_P

>  <MW_cresset>
598.1

>  <#Atoms_cresset>
43

>  <SlogP_cresset>
3.5

>  <TPSA_cresset>
103.8

>  <Flexibility_cresset>
7.1

>  <HBA_cresset>
10

>  <HBD_cresset>
1

>  <Rof5_cresset>
1

>  <Confs_cresset>
0

>  <Poses_cresset>
0

$$$$
predicted (13)
  xed2sdf           3D
 
 69 74  0  0  1  0  0  0  0  0999 V2000
  -13.8620   -2.9240  -21.7860 Cl  0  0  0  0  0  0  0  0  0  0  0  0
  -10.8780    2.5070  -24.3990 O   0  0  0  0  0  0  0  0  0  0  0  0
   -5.7810    2.2980  -24.7550 O   0  0  0  0  0  0  0  0  0  0  0  0
   -8.6620    0.7490  -21.4050 O   0  0  0  0  0  0  0  0  0  0  0  0
   -7.5250   -6.3760  -28.0280 N   0  0  0  0  0  0  0  0  0  0  0  0
   -8.2440   -5.3770  -25.9720 N   0  0  0  0  0  0  0  0  0  0  0  0
   -6.1260   -0.5720  -17.9910 N   0  0  0  0  0  0  0  0  0  0  0  0
  -10.3760    1.4170  -24.1880 C   0  0  0  0  0  0  0  0  0  0  0  0
   -6.9080    2.5310  -24.3400 C   0  0  0  0  0  0  0  0  0  0  0  0
   -8.3370   -0.3100  -21.8980 C   0  0  0  0  0  0  0  0  0  0  0  0
   -8.3400   -6.2690  -26.9570 C   0  0  0  0  0  0  0  0  0  0  0  0
   -6.4990   -5.5000  -28.0750 C   0  0  0  0  0  0  0  0  0  0  0  0
   -6.8190   -0.9920  -19.0670 C   0  0  0  0  0  0  0  0  0  0  0  0
   -7.2470   -4.4860  -26.0130 C   0  0  0  0  0  0  0  0  0  0  0  0
   -6.3090   -4.5210  -27.0710 C   0  0  0  0  0  0  0  0  0  0  0  0
  -13.4330   -0.5840  -23.0950 C   0  0  0  0  0  0  0  0  0  0  0  0
  -12.6170    0.4190  -23.6240 C   0  0  0  0  0  0  0  0  0  0  0  0
  -11.4520   -1.8590  -22.5110 C   0  0  0  0  0  0  0  0  0  0  0  0
   -2.7620    1.3200  -20.9080 C   0  0  0  0  0  0  0  0  0  0  0  0
   -3.4760    0.8820  -22.0330 C   0  0  0  0  0  0  0  0  0  0  0  0
  -12.8470   -1.7150  -22.5310 C   0  0  0  0  0  0  0  0  0  0  0  0
  -11.2070    0.2920  -23.6110 C   0  0  0  0  0  0  0  0  0  0  0  0
  -10.6000   -0.8620  -23.0550 C   0  0  0  0  0  0  0  0  0  0  0  0
   -4.9850    0.1110  -18.1840 C   0  0  0  0  0  0  0  0  0  0  0  0
   -3.2670    1.0860  -19.6210 C   0  0  0  0  0  0  0  0  0  0  0  0
   -4.6950    0.2090  -21.8740 C   0  0  0  0  0  0  0  0  0  0  0  0
   -6.4100   -0.7380  -20.3840 C   0  0  0  0  0  0  0  0  0  0  0  0
   -4.4680    0.3750  -19.4600 C   0  0  0  0  0  0  0  0  0  0  0  0
   -5.1900   -0.0630  -20.5870 C   0  0  0  0  0  0  0  0  0  0  0  0
   -7.1430    3.1930  -23.1440 N   0  0  0  0  0  0  0  0  0  0  0  0
   -7.2690   -3.5170  -24.9980 N   0  0  0  0  0  0  0  0  0  0  0  0
   -7.2620   -1.0730  -21.4670 N   0  0  0  0  0  0  0  0  0  0  0  0
   -9.0320    1.1450  -24.4710 N   0  0  0  0  0  0  0  0  0  0  0  0
   -9.4850   -7.2290  -26.8050 C   0  0  0  0  0  0  0  0  0  0  0  0
   -6.0950    3.6780  -22.2290 C   0  0  0  0  0  0  0  0  0  0  0  0
   -8.1690    2.1640  -25.1440 C   0  0  0  0  0  0  0  0  0  0  0  0
   -8.5230   -3.3220  -24.2070 C   0  0  0  0  0  0  0  0  0  0  0  0
   -7.0960   -2.2910  -22.2550 C   0  0  0  0  0  0  0  0  0  0  0  0
   -8.4770   -0.2290  -24.3320 C   0  0  0  0  0  0  0  0  0  0  0  0
   -8.4560   -2.4350  -22.9470 C   0  0  0  0  0  0  0  0  0  0  0  0
   -9.0380   -0.9810  -23.0850 C   0  0  0  0  0  0  0  0  0  0  0  0
   -5.8320   -5.5730  -28.9390 H   0  0  0  0  0  0  0  0  0  0  0  0
   -7.7400   -1.5330  -18.8610 H   0  0  0  0  0  0  0  0  0  0  0  0
   -5.4910   -3.8160  -27.1330 H   0  0  0  0  0  0  0  0  0  0  0  0
  -14.5140   -0.4800  -23.1160 H   0  0  0  0  0  0  0  0  0  0  0  0
  -13.0940    1.3020  -24.0400 H   0  0  0  0  0  0  0  0  0  0  0  0
  -11.0650   -2.7600  -22.0600 H   0  0  0  0  0  0  0  0  0  0  0  0
   -1.8230    1.8490  -21.0360 H   0  0  0  0  0  0  0  0  0  0  0  0
   -3.0950    1.0790  -23.0310 H   0  0  0  0  0  0  0  0  0  0  0  0
   -4.4830    0.4630  -17.2880 H   0  0  0  0  0  0  0  0  0  0  0  0
   -2.7260    1.4590  -18.7570 H   0  0  0  0  0  0  0  0  0  0  0  0
   -5.2450   -0.1000  -22.7540 H   0  0  0  0  0  0  0  0  0  0  0  0
   -8.1080    3.3680  -22.8890 H   0  0  0  0  0  0  0  0  0  0  0  0
   -6.5480   -2.8050  -25.0000 H   0  0  0  0  0  0  0  0  0  0  0  0
  -10.4420   -6.7240  -26.9930 H   0  0  0  0  0  0  0  0  0  0  0  0
   -9.5110   -7.6380  -25.7870 H   0  0  0  0  0  0  0  0  0  0  0  0
   -9.3600   -8.0640  -27.4910 H   0  0  0  0  0  0  0  0  0  0  0  0
   -5.1570    3.8750  -22.7650 H   0  0  0  0  0  0  0  0  0  0  0  0
   -5.9080    2.9330  -21.4450 H   0  0  0  0  0  0  0  0  0  0  0  0
   -6.4380    4.6100  -21.7640 H   0  0  0  0  0  0  0  0  0  0  0  0
   -7.8760    1.8020  -26.1370 H   0  0  0  0  0  0  0  0  0  0  0  0
   -8.7350    3.0950  -25.2800 H   0  0  0  0  0  0  0  0  0  0  0  0
   -9.2990   -2.9140  -24.8620 H   0  0  0  0  0  0  0  0  0  0  0  0
   -8.8710   -4.3040  -23.8610 H   0  0  0  0  0  0  0  0  0  0  0  0
   -6.2980   -2.1460  -22.9930 H   0  0  0  0  0  0  0  0  0  0  0  0
   -6.8620   -3.1560  -21.6210 H   0  0  0  0  0  0  0  0  0  0  0  0
   -7.3830   -0.1710  -24.2470 H   0  0  0  0  0  0  0  0  0  0  0  0
   -8.6970   -0.7910  -25.2460 H   0  0  0  0  0  0  0  0  0  0  0  0
   -9.0450   -2.9630  -22.1950 H   0  0  0  0  0  0  0  0  0  0  0  0
  8  2  2  0
  9  3  2  0
 10  4  2  0
 11  5  2  0
 11  6  1  0
 12  5  1  0
 13  7  2  0
 14  6  2  0
 15 12  2  0
 15 14  1  0
 17 16  1  0
 20 19  1  0
 21  1  1  0
 21 16  2  0
 21 18  1  0
 22  8  1  0
 22 17  2  0
 23 18  2  0
 23 22  1  0
 24  7  1  0
 25 19  2  0
 26 20  2  0
 27 13  1  0
 28 24  2  0
 28 25  1  0
 29 26  1  0
 29 27  2  0
 29 28  1  0
 30  9  1  0
 31 14  1  0
 32 10  1  0
 32 27  1  0
 33  8  1  0
 34 11  1  0
 35 30  1  0
 36  9  1  0
 36 33  1  0
 37 31  1  0
 38 32  1  0
 39 33  1  0
 40 37  1  0
 40 38  1  0
 41 10  1  0
 41 23  1  0
 41 39  1  0
 41 40  1  0
 12 42  1  0
 13 43  1  0
 15 44  1  0
 16 45  1  0
 17 46  1  0
 18 47  1  0
 19 48  1  0
 20 49  1  0
 24 50  1  0
 25 51  1  0
 26 52  1  0
 30 53  1  0
 31 54  1  0
 34 55  1  0
 34 56  1  0
 34 57  1  0
 35 58  1  0
 35 59  1  0
 35 60  1  0
 36 61  1  0
 36 62  1  0
 37 63  1  0
 37 64  1  0
 38 65  1  0
 38 66  1  0
 39 67  1  0
 39 68  1  0
 40 69  1  0
M  END
>  <Favorite_cresset>
false

>  <Protein_cresset>
sars_P

>  <MW_cresset>
570.0

>  <#Atoms_cresset>
41

>  <SlogP_cresset>
3.2

>  <TPSA_cresset>
120.4

>  <Flexibility_cresset>
5.1

>  <HBA_cresset>
10

>  <HBD_cresset>
2

>  <Rof5_cresset>
1

>  <Confs_cresset>
0

>  <Poses_cresset>
0

$$$$
predicted (14)
  xed2sdf           3D
 
 72 77  0  0  1  0  0  0  0  0999 V2000
  -13.6530   -3.0230  -21.7160 Cl  0  0  0  0  0  0  0  0  0  0  0  0
  -10.8450    2.5400  -24.2170 O   0  0  0  0  0  0  0  0  0  0  0  0
   -8.6140    0.6890  -21.3930 O   0  0  0  0  0  0  0  0  0  0  0  0
   -5.5480    9.0150  -23.3670 O   0  0  0  0  0  0  0  0  0  0  0  0
   -3.3140    7.9050  -23.2660 O   0  0  0  0  0  0  0  0  0  0  0  0
   -6.1120   -0.5780  -17.9590 N   0  0  0  0  0  0  0  0  0  0  0  0
  -10.3320    1.4370  -24.1250 C   0  0  0  0  0  0  0  0  0  0  0  0
   -8.2550   -0.3470  -21.9130 C   0  0  0  0  0  0  0  0  0  0  0  0
   -6.8010   -0.9930  -19.0390 C   0  0  0  0  0  0  0  0  0  0  0  0
  -13.2750   -0.6750  -22.9810 C   0  0  0  0  0  0  0  0  0  0  0  0
  -12.5070    0.3670  -23.4950 C   0  0  0  0  0  0  0  0  0  0  0  0
  -11.2460   -1.9150  -22.4960 C   0  0  0  0  0  0  0  0  0  0  0  0
   -2.8300    1.4570  -20.8790 C   0  0  0  0  0  0  0  0  0  0  0  0
   -3.5450    1.0290  -22.0030 C   0  0  0  0  0  0  0  0  0  0  0  0
  -12.6510   -1.8080  -22.4740 C   0  0  0  0  0  0  0  0  0  0  0  0
  -11.1010    0.2610  -23.5750 C   0  0  0  0  0  0  0  0  0  0  0  0
  -10.4460   -0.9020  -23.0900 C   0  0  0  0  0  0  0  0  0  0  0  0
   -4.9780    0.1190  -18.1490 C   0  0  0  0  0  0  0  0  0  0  0  0
   -3.3040    1.1670  -19.5910 C   0  0  0  0  0  0  0  0  0  0  0  0
   -4.7300    0.3050  -21.8390 C   0  0  0  0  0  0  0  0  0  0  0  0
   -6.3870   -0.7350  -20.3520 C   0  0  0  0  0  0  0  0  0  0  0  0
   -4.4810    0.4210  -19.4250 C   0  0  0  0  0  0  0  0  0  0  0  0
   -5.1980   -0.0150  -20.5510 C   0  0  0  0  0  0  0  0  0  0  0  0
   -7.2100   -1.1070  -21.4390 N   0  0  0  0  0  0  0  0  0  0  0  0
   -9.0110    1.2090  -24.4870 N   0  0  0  0  0  0  0  0  0  0  0  0
   -5.4110    6.5310  -22.8100 N   0  0  0  0  0  0  0  0  0  0  0  0
   -8.1100    2.3490  -24.7520 C   0  0  0  0  0  0  0  0  0  0  0  0
   -4.7110    5.4270  -23.5070 C   0  0  0  0  0  0  0  0  0  0  0  0
   -6.8780    6.5310  -23.0120 C   0  0  0  0  0  0  0  0  0  0  0  0
   -8.0930   -3.1920  -24.4620 C   0  0  0  0  0  0  0  0  0  0  0  0
   -6.9860   -2.3250  -22.2030 C   0  0  0  0  0  0  0  0  0  0  0  0
   -8.3680   -0.1210  -24.3780 C   0  0  0  0  0  0  0  0  0  0  0  0
   -7.4850    2.7900  -23.4340 C   0  0  0  0  0  0  0  0  0  0  0  0
   -5.3900    4.0500  -23.2800 C   0  0  0  0  0  0  0  0  0  0  0  0
   -7.5390    5.1470  -22.8190 C   0  0  0  0  0  0  0  0  0  0  0  0
   -4.5730    8.3180  -20.8970 C   0  0  0  0  0  0  0  0  0  0  0  0
   -8.2510   -2.4340  -23.1030 C   0  0  0  0  0  0  0  0  0  0  0  0
   -8.8860   -0.9740  -23.1610 C   0  0  0  0  0  0  0  0  0  0  0  0
   -6.8320    4.0970  -23.5780 N   0  0  0  0  0  0  0  0  0  0  0  0
   -4.6630    8.0490  -22.7310 S   0  0  0  0  0  0  0  0  0  0  0  0
   -7.7270   -1.5320  -18.8490 H   0  0  0  0  0  0  0  0  0  0  0  0
  -14.3570   -0.5870  -22.9330 H   0  0  0  0  0  0  0  0  0  0  0  0
  -13.0220    1.2610  -23.8300 H   0  0  0  0  0  0  0  0  0  0  0  0
  -10.8000   -2.7730  -22.0120 H   0  0  0  0  0  0  0  0  0  0  0  0
   -1.9150    2.0260  -21.0060 H   0  0  0  0  0  0  0  0  0  0  0  0
   -3.1920    1.2690  -23.0030 H   0  0  0  0  0  0  0  0  0  0  0  0
   -4.4770    0.4660  -17.2510 H   0  0  0  0  0  0  0  0  0  0  0  0
   -2.7590    1.5310  -18.7300 H   0  0  0  0  0  0  0  0  0  0  0  0
   -5.2770    0.0020  -22.7210 H   0  0  0  0  0  0  0  0  0  0  0  0
   -8.6520    3.1930  -25.1980 H   0  0  0  0  0  0  0  0  0  0  0  0
   -7.3190    2.0670  -25.4540 H   0  0  0  0  0  0  0  0  0  0  0  0
   -3.6860    5.3560  -23.1260 H   0  0  0  0  0  0  0  0  0  0  0  0
   -4.6510    5.6420  -24.5810 H   0  0  0  0  0  0  0  0  0  0  0  0
   -7.1240    6.9200  -24.0070 H   0  0  0  0  0  0  0  0  0  0  0  0
   -7.3120    7.1990  -22.2730 H   0  0  0  0  0  0  0  0  0  0  0  0
   -7.0440   -3.2650  -24.7770 H   0  0  0  0  0  0  0  0  0  0  0  0
   -8.6470   -2.6890  -25.2630 H   0  0  0  0  0  0  0  0  0  0  0  0
   -8.4990   -4.2150  -24.4000 H   0  0  0  0  0  0  0  0  0  0  0  0
   -6.0650   -2.2220  -22.7930 H   0  0  0  0  0  0  0  0  0  0  0  0
   -6.8800   -3.1700  -21.5030 H   0  0  0  0  0  0  0  0  0  0  0  0
   -7.2870    0.0370  -24.2790 H   0  0  0  0  0  0  0  0  0  0  0  0
   -8.5270   -0.6500  -25.3220 H   0  0  0  0  0  0  0  0  0  0  0  0
   -8.2880    2.8420  -22.6870 H   0  0  0  0  0  0  0  0  0  0  0  0
   -6.7780    2.0210  -23.0980 H   0  0  0  0  0  0  0  0  0  0  0  0
   -4.9070    3.3040  -23.9280 H   0  0  0  0  0  0  0  0  0  0  0  0
   -5.2410    3.7420  -22.2340 H   0  0  0  0  0  0  0  0  0  0  0  0
   -8.5880    5.2000  -23.1490 H   0  0  0  0  0  0  0  0  0  0  0  0
   -7.5380    4.9000  -21.7470 H   0  0  0  0  0  0  0  0  0  0  0  0
   -3.5240    8.3400  -20.5730 H   0  0  0  0  0  0  0  0  0  0  0  0
   -5.0880    7.4920  -20.3880 H   0  0  0  0  0  0  0  0  0  0  0  0
   -5.0590    9.2680  -20.6340 H   0  0  0  0  0  0  0  0  0  0  0  0
   -8.8750   -3.0730  -22.4890 H   0  0  0  0  0  0  0  0  0  0  0  0
  7  2  2  0
  8  3  2  0
  9  6  2  0
 11 10  1  0
 14 13  1  0
 15  1  1  0
 15 10  2  0
 15 12  1  0
 16  7  1  0
 16 11  2  0
 17 12  2  0
 17 16  1  0
 18  6  1  0
 19 13  2  0
 20 14  2  0
 21  9  1  0
 22 18  2  0
 22 19  1  0
 23 20  1  0
 23 21  2  0
 23 22  1  0
 24  8  1  0
 24 21  1  0
 25  7  1  0
 27 25  1  0
 28 26  1  0
 29 26  1  0
 31 24  1  0
 32 25  1  0
 33 27  1  0
 34 28  1  0
 35 29  1  0
 37 30  1  0
 37 31  1  0
 38  8  1  0
 38 17  1  0
 38 32  1  0
 38 37  1  0
 39 33  1  0
 39 34  1  0
 39 35  1  0
 40  4  2  0
 40  5  2  0
 40 26  1  0
 40 36  1  0
  9 41  1  0
 10 42  1  0
 11 43  1  0
 12 44  1  0
 13 45  1  0
 14 46  1  0
 18 47  1  0
 19 48  1  0
 20 49  1  0
 27 50  1  0
 27 51  1  0
 28 52  1  0
 28 53  1  0
 29 54  1  0
 29 55  1  0
 30 56  1  0
 30 57  1  0
 30 58  1  0
 31 59  1  0
 31 60  1  0
 32 61  1  0
 32 62  1  0
 33 63  1  0
 33 64  1  0
 34 65  1  0
 34 66  1  0
 35 67  1  0
 35 68  1  0
 36 69  1  0
 36 70  1  0
 36 71  1  0
 37 72  1  0
M  END
>  <Favorite_cresset>
false

>  <Protein_cresset>
sars_P

>  <MW_cresset>
582.1

>  <#Atoms_cresset>
40

>  <SlogP_cresset>
2.9

>  <TPSA_cresset>
94.1

>  <Flexibility_cresset>
5.8

>  <HBA_cresset>
9

>  <HBD_cresset>
0

>  <Rof5_cresset>
1

>  <Confs_cresset>
0

>  <Poses_cresset>
0

$$$$
predicted (15)
  xed2sdf           3D
 
 63 68  0  0  1  0  0  0  0  0999 V2000
  -13.2970   -2.9700  -21.8790 Cl  0  0  0  0  0  0  0  0  0  0  0  0
  -10.6620    2.7700  -24.1790 O   0  0  0  0  0  0  0  0  0  0  0  0
   -5.8430    3.7220  -24.5720 O   0  0  0  0  0  0  0  0  0  0  0  0
   -8.4300    0.8900  -21.4040 O   0  0  0  0  0  0  0  0  0  0  0  0
   -6.0300   -0.5700  -17.8700 N   0  0  0  0  0  0  0  0  0  0  0  0
   -7.8330   -3.7260  -26.6880 N   0  0  0  0  0  0  0  0  0  0  0  0
  -10.0880    1.7030  -24.0400 C   0  0  0  0  0  0  0  0  0  0  0  0
   -6.9250    3.3520  -24.1290 C   0  0  0  0  0  0  0  0  0  0  0  0
   -8.0580   -0.1560  -21.8970 C   0  0  0  0  0  0  0  0  0  0  0  0
   -8.3370   -4.9050  -27.0080 C   0  0  0  0  0  0  0  0  0  0  0  0
   -6.7010   -0.9590  -18.9650 C   0  0  0  0  0  0  0  0  0  0  0  0
  -12.9710   -0.5680  -23.0290 C   0  0  0  0  0  0  0  0  0  0  0  0
  -12.2330    0.5150  -23.4960 C   0  0  0  0  0  0  0  0  0  0  0  0
  -10.8960   -1.7660  -22.5780 C   0  0  0  0  0  0  0  0  0  0  0  0
   -2.8120    1.7450  -20.6580 C   0  0  0  0  0  0  0  0  0  0  0  0
   -3.5010    1.3490  -21.8100 C   0  0  0  0  0  0  0  0  0  0  0  0
   -8.6200   -5.6550  -25.8480 C   0  0  0  0  0  0  0  0  0  0  0  0
  -12.3090   -1.7010  -22.5620 C   0  0  0  0  0  0  0  0  0  0  0  0
  -10.8230    0.4640  -23.5620 C   0  0  0  0  0  0  0  0  0  0  0  0
  -10.1320   -0.7110  -23.1460 C   0  0  0  0  0  0  0  0  0  0  0  0
   -4.9340    0.1900  -18.0250 C   0  0  0  0  0  0  0  0  0  0  0  0
   -3.2890    1.3700  -19.3970 C   0  0  0  0  0  0  0  0  0  0  0  0
   -4.6650    0.5710  -21.6960 C   0  0  0  0  0  0  0  0  0  0  0  0
   -6.3020   -0.6000  -20.2530 C   0  0  0  0  0  0  0  0  0  0  0  0
   -8.2780   -4.9060  -24.7680 C   0  0  0  0  0  0  0  0  0  0  0  0
   -4.4400    0.5740  -19.2790 C   0  0  0  0  0  0  0  0  0  0  0  0
   -5.1370    0.1700  -20.4280 C   0  0  0  0  0  0  0  0  0  0  0  0
   -7.3000    3.5870  -22.8200 N   0  0  0  0  0  0  0  0  0  0  0  0
   -7.1050   -0.9660  -21.3390 N   0  0  0  0  0  0  0  0  0  0  0  0
   -8.7360    1.5590  -24.3270 N   0  0  0  0  0  0  0  0  0  0  0  0
   -7.7980   -3.7210  -25.3130 N   0  0  0  0  0  0  0  0  0  0  0  0
   -6.5020    4.4640  -21.9520 C   0  0  0  0  0  0  0  0  0  0  0  0
   -7.9580    2.6300  -25.0160 C   0  0  0  0  0  0  0  0  0  0  0  0
   -6.8290   -2.1690  -22.0870 C   0  0  0  0  0  0  0  0  0  0  0  0
   -7.1310   -2.6140  -24.5960 C   0  0  0  0  0  0  0  0  0  0  0  0
   -8.0910    0.2350  -24.3380 C   0  0  0  0  0  0  0  0  0  0  0  0
   -7.8320   -2.1550  -23.2640 C   0  0  0  0  0  0  0  0  0  0  0  0
   -8.5700   -0.7280  -23.2110 C   0  0  0  0  0  0  0  0  0  0  0  0
   -8.4460   -5.1810  -28.0450 H   0  0  0  0  0  0  0  0  0  0  0  0
   -7.6010   -1.5530  -18.8070 H   0  0  0  0  0  0  0  0  0  0  0  0
  -14.0570   -0.5120  -22.9880 H   0  0  0  0  0  0  0  0  0  0  0  0
  -12.7720    1.4030  -23.8080 H   0  0  0  0  0  0  0  0  0  0  0  0
  -10.4070   -2.6140  -22.1100 H   0  0  0  0  0  0  0  0  0  0  0  0
   -1.9180    2.3570  -20.7370 H   0  0  0  0  0  0  0  0  0  0  0  0
   -3.1380    1.6610  -22.7860 H   0  0  0  0  0  0  0  0  0  0  0  0
   -9.0190   -6.6600  -25.8260 H   0  0  0  0  0  0  0  0  0  0  0  0
   -4.4700    0.5290  -17.1100 H   0  0  0  0  0  0  0  0  0  0  0  0
   -2.7600    1.7140  -18.5220 H   0  0  0  0  0  0  0  0  0  0  0  0
   -5.1900    0.2900  -22.6010 H   0  0  0  0  0  0  0  0  0  0  0  0
   -8.3160   -5.1180  -23.7100 H   0  0  0  0  0  0  0  0  0  0  0  0
   -8.1980    3.2410  -22.4930 H   0  0  0  0  0  0  0  0  0  0  0  0
   -5.4270    4.2720  -22.0850 H   0  0  0  0  0  0  0  0  0  0  0  0
   -6.7650    4.2970  -20.9140 H   0  0  0  0  0  0  0  0  0  0  0  0
   -6.7080    5.5120  -22.1920 H   0  0  0  0  0  0  0  0  0  0  0  0
   -7.4100    2.1730  -25.8400 H   0  0  0  0  0  0  0  0  0  0  0  0
   -8.6280    3.3850  -25.4450 H   0  0  0  0  0  0  0  0  0  0  0  0
   -5.7820   -2.1520  -22.4210 H   0  0  0  0  0  0  0  0  0  0  0  0
   -6.9830   -3.0450  -21.4400 H   0  0  0  0  0  0  0  0  0  0  0  0
   -6.1030   -2.9410  -24.3900 H   0  0  0  0  0  0  0  0  0  0  0  0
   -7.0020   -1.7800  -25.2820 H   0  0  0  0  0  0  0  0  0  0  0  0
   -7.0070    0.3830  -24.2510 H   0  0  0  0  0  0  0  0  0  0  0  0
   -8.3010   -0.2140  -25.3140 H   0  0  0  0  0  0  0  0  0  0  0  0
   -8.5520   -2.9220  -22.9980 H   0  0  0  0  0  0  0  0  0  0  0  0
  7  2  2  0
  8  3  2  0
  9  4  2  0
 10  6  2  0
 11  5  2  0
 13 12  1  0
 16 15  1  0
 17 10  1  0
 18  1  1  0
 18 12  2  0
 18 14  1  0
 19  7  1  0
 19 13  2  0
 20 14  2  0
 20 19  1  0
 21  5  1  0
 22 15  2  0
 23 16  2  0
 24 11  1  0
 25 17  2  0
 26 21  2  0
 26 22  1  0
 27 23  1  0
 27 24  2  0
 27 26  1  0
 28  8  1  0
 29  9  1  0
 29 24  1  0
 30  7  1  0
 31  6  1  0
 31 25  1  0
 32 28  1  0
 33  8  1  0
 33 30  1  0
 34 29  1  0
 35 31  1  0
 36 30  1  0
 37 34  1  0
 37 35  1  0
 38  9  1  0
 38 20  1  0
 38 36  1  0
 38 37  1  0
 10 39  1  0
 11 40  1  0
 12 41  1  0
 13 42  1  0
 14 43  1  0
 15 44  1  0
 16 45  1  0
 17 46  1  0
 21 47  1  0
 22 48  1  0
 23 49  1  0
 25 50  1  0
 28 51  1  0
 32 52  1  0
 32 53  1  0
 32 54  1  0
 33 55  1  0
 33 56  1  0
 34 57  1  0
 34 58  1  0
 35 59  1  0
 35 60  1  0
 36 61  1  0
 36 62  1  0
 37 63  1  0
M  END
>  <Favorite_cresset>
false

>  <Protein_cresset>
sars_P

>  <MW_cresset>
529.0

>  <#Atoms_cresset>
38

>  <SlogP_cresset>
2.9

>  <TPSA_cresset>
100.4

>  <Flexibility_cresset>
4.9

>  <HBA_cresset>
9

>  <HBD_cresset>
1

>  <Rof5_cresset>
1

>  <Confs_cresset>
0

>  <Poses_cresset>
0

$$$$
predicted (16)
  xed2sdf           3D
 
 61 66  0  0  1  0  0  0  0  0999 V2000
  -13.7500   -2.9650  -21.7220 Cl  0  0  0  0  0  0  0  0  0  0  0  0
  -10.7650    2.4010  -24.4900 O   0  0  0  0  0  0  0  0  0  0  0  0
   -5.7850    2.6430  -24.8660 O   0  0  0  0  0  0  0  0  0  0  0  0
   -8.7390    0.6770  -21.4940 O   0  0  0  0  0  0  0  0  0  0  0  0
   -5.6410   -5.9570  -23.8100 N   0  0  0  0  0  0  0  0  0  0  0  0
   -6.1750   -0.5090  -17.9540 N   0  0  0  0  0  0  0  0  0  0  0  0
   -5.9100   -4.7590  -24.2540 N   0  0  0  0  0  0  0  0  0  0  0  0
   -7.8390   -5.6710  -23.4530 N   0  0  0  0  0  0  0  0  0  0  0  0
  -10.2660    1.3020  -24.3020 C   0  0  0  0  0  0  0  0  0  0  0  0
   -6.9520    2.6460  -24.5050 C   0  0  0  0  0  0  0  0  0  0  0  0
   -8.3160   -0.3640  -21.9580 C   0  0  0  0  0  0  0  0  0  0  0  0
   -6.8080   -6.4870  -23.3200 C   0  0  0  0  0  0  0  0  0  0  0  0
   -6.8410   -0.9460  -19.0420 C   0  0  0  0  0  0  0  0  0  0  0  0
  -13.3050   -0.6840  -23.0990 C   0  0  0  0  0  0  0  0  0  0  0  0
  -12.4960    0.3080  -23.6580 C   0  0  0  0  0  0  0  0  0  0  0  0
  -11.3060   -1.9630  -22.5490 C   0  0  0  0  0  0  0  0  0  0  0  0
   -2.9310    1.6470  -20.8260 C   0  0  0  0  0  0  0  0  0  0  0  0
   -3.6340    1.2140  -21.9600 C   0  0  0  0  0  0  0  0  0  0  0  0
  -12.7090   -1.8030  -22.5230 C   0  0  0  0  0  0  0  0  0  0  0  0
  -11.0850    0.1720  -23.7040 C   0  0  0  0  0  0  0  0  0  0  0  0
  -10.4620   -0.9900  -23.1650 C   0  0  0  0  0  0  0  0  0  0  0  0
   -5.0650    0.2320  -18.1290 C   0  0  0  0  0  0  0  0  0  0  0  0
   -3.4050    1.3310  -19.5470 C   0  0  0  0  0  0  0  0  0  0  0  0
   -4.8060    0.4590  -21.8240 C   0  0  0  0  0  0  0  0  0  0  0  0
   -6.4420   -0.6390  -20.3520 C   0  0  0  0  0  0  0  0  0  0  0  0
   -4.5690    0.5600  -19.4000 C   0  0  0  0  0  0  0  0  0  0  0  0
   -5.2720    0.1210  -20.5410 C   0  0  0  0  0  0  0  0  0  0  0  0
   -7.3550    3.2200  -23.3140 N   0  0  0  0  0  0  0  0  0  0  0  0
   -7.2360   -1.0520  -21.4480 N   0  0  0  0  0  0  0  0  0  0  0  0
   -8.9260    1.0330  -24.6050 N   0  0  0  0  0  0  0  0  0  0  0  0
   -7.2410   -4.6080  -24.0430 N   0  0  0  0  0  0  0  0  0  0  0  0
   -6.4970    4.0290  -22.4260 C   0  0  0  0  0  0  0  0  0  0  0  0
   -8.0800    2.0190  -25.3600 C   0  0  0  0  0  0  0  0  0  0  0  0
   -6.9980   -2.3100  -22.1320 C   0  0  0  0  0  0  0  0  0  0  0  0
   -7.9570   -3.3380  -24.3080 C   0  0  0  0  0  0  0  0  0  0  0  0
   -8.3420   -0.3200  -24.4300 C   0  0  0  0  0  0  0  0  0  0  0  0
   -8.2580   -2.5260  -23.0120 C   0  0  0  0  0  0  0  0  0  0  0  0
   -8.9000   -1.0810  -23.1820 C   0  0  0  0  0  0  0  0  0  0  0  0
   -6.8400   -7.4680  -22.8550 H   0  0  0  0  0  0  0  0  0  0  0  0
   -7.7350   -1.5460  -18.8570 H   0  0  0  0  0  0  0  0  0  0  0  0
  -14.3870   -0.5620  -23.0870 H   0  0  0  0  0  0  0  0  0  0  0  0
  -12.9850    1.1940  -24.0540 H   0  0  0  0  0  0  0  0  0  0  0  0
  -10.9120   -2.8370  -22.0440 H   0  0  0  0  0  0  0  0  0  0  0  0
   -2.0260    2.2360  -20.9450 H   0  0  0  0  0  0  0  0  0  0  0  0
   -3.2730    1.4690  -22.9490 H   0  0  0  0  0  0  0  0  0  0  0  0
   -4.5720    0.5780  -17.2240 H   0  0  0  0  0  0  0  0  0  0  0  0
   -2.8730    1.6870  -18.6750 H   0  0  0  0  0  0  0  0  0  0  0  0
   -5.3440    0.1470  -22.7160 H   0  0  0  0  0  0  0  0  0  0  0  0
   -8.3440    3.1750  -23.1110 H   0  0  0  0  0  0  0  0  0  0  0  0
   -5.4490    4.0200  -22.7520 H   0  0  0  0  0  0  0  0  0  0  0  0
   -6.5440    3.6050  -21.4230 H   0  0  0  0  0  0  0  0  0  0  0  0
   -6.8680    5.0640  -22.3850 H   0  0  0  0  0  0  0  0  0  0  0  0
   -7.6320    1.5440  -26.2460 H   0  0  0  0  0  0  0  0  0  0  0  0
   -8.7070    2.8450  -25.7180 H   0  0  0  0  0  0  0  0  0  0  0  0
   -6.0890   -2.2160  -22.7410 H   0  0  0  0  0  0  0  0  0  0  0  0
   -6.8630   -3.1210  -21.4050 H   0  0  0  0  0  0  0  0  0  0  0  0
   -8.9020   -3.5800  -24.8100 H   0  0  0  0  0  0  0  0  0  0  0  0
   -7.3560   -2.7270  -24.9940 H   0  0  0  0  0  0  0  0  0  0  0  0
   -7.2540   -0.2190  -24.3140 H   0  0  0  0  0  0  0  0  0  0  0  0
   -8.5470   -0.8910  -25.3460 H   0  0  0  0  0  0  0  0  0  0  0  0
   -8.9300   -3.1420  -22.4100 H   0  0  0  0  0  0  0  0  0  0  0  0
  7  5  2  0
  9  2  2  0
 10  3  2  0
 11  4  2  0
 12  5  1  0
 12  8  2  0
 13  6  2  0
 15 14  1  0
 18 17  1  0
 19  1  1  0
 19 14  2  0
 19 16  1  0
 20  9  1  0
 20 15  2  0
 21 16  2  0
 21 20  1  0
 22  6  1  0
 23 17  2  0
 24 18  2  0
 25 13  1  0
 26 22  2  0
 26 23  1  0
 27 24  1  0
 27 25  2  0
 27 26  1  0
 28 10  1  0
 29 11  1  0
 29 25  1  0
 30  9  1  0
 31  7  1  0
 31  8  1  0
 32 28  1  0
 33 10  1  0
 33 30  1  0
 34 29  1  0
 35 31  1  0
 36 30  1  0
 37 34  1  0
 37 35  1  0
 38 11  1  0
 38 21  1  0
 38 36  1  0
 38 37  1  0
 12 39  1  0
 13 40  1  0
 14 41  1  0
 15 42  1  0
 16 43  1  0
 17 44  1  0
 18 45  1  0
 22 46  1  0
 23 47  1  0
 24 48  1  0
 28 49  1  0
 32 50  1  0
 32 51  1  0
 32 52  1  0
 33 53  1  0
 33 54  1  0
 34 55  1  0
 34 56  1  0
 35 57  1  0
 35 58  1  0
 36 59  1  0
 36 60  1  0
 37 61  1  0
M  END
>  <Favorite_cresset>
false

>  <Protein_cresset>
sars_P

>  <MW_cresset>
531.0

>  <#Atoms_cresset>
38

>  <SlogP_cresset>
1.7

>  <TPSA_cresset>
126.2

>  <Flexibility_cresset>
4.9

>  <HBA_cresset>
11

>  <HBD_cresset>
1

>  <Rof5_cresset>
2

>  <Confs_cresset>
0

>  <Poses_cresset>
0

$$$$
predicted (17)
  xed2sdf           3D
 
 39 42  0  0  1  0  0  0  0  0999 V2000
    8.7960    0.4740   21.3730 O   0  0  0  0  0  0  0  0  0  0  0  0
    6.5280   -3.4470   21.8970 O   0  0  0  0  0  0  0  0  0  0  0  0
    6.2330   -0.6520   17.9060 N   0  0  0  0  0  0  0  0  0  0  0  0
    6.9910   -1.1440   18.9090 C   0  0  0  0  0  0  0  0  0  0  0  0
    3.1140    1.1510   21.0680 C   0  0  0  0  0  0  0  0  0  0  0  0
    3.8840    0.6450   22.1310 C   0  0  0  0  0  0  0  0  0  0  0  0
    5.0950   -0.0150   18.1870 C   0  0  0  0  0  0  0  0  0  0  0  0
    3.5140    0.9150   19.7470 C   0  0  0  0  0  0  0  0  0  0  0  0
    5.0560   -0.0800   21.8770 C   0  0  0  0  0  0  0  0  0  0  0  0
    6.6310   -1.0180   20.2550 C   0  0  0  0  0  0  0  0  0  0  0  0
    7.3810   -2.5870   22.0470 C   0  0  0  0  0  0  0  0  0  0  0  0
    8.4570   -2.5070   23.1480 C   0  0  0  0  0  0  0  0  0  0  0  0
    8.5550   -0.6640   21.7160 C   0  0  0  0  0  0  0  0  0  0  0  0
    4.6780    0.1890   19.4980 C   0  0  0  0  0  0  0  0  0  0  0  0
    5.4540   -0.3160   20.5560 C   0  0  0  0  0  0  0  0  0  0  0  0
    7.5100   -1.4400   21.2840 N   0  0  0  0  0  0  0  0  0  0  0  0
    9.2400   -1.3760   22.6530 N   0  0  0  0  0  0  0  0  0  0  0  0
    9.3380   -3.7490   23.4270 C   0  0  0  0  0  0  0  0  0  0  0  0
   12.7220   -1.7690   24.2350 C   0  0  0  0  0  0  0  0  0  0  0  0
   10.4910   -0.9840   23.2840 C   0  0  0  0  0  0  0  0  0  0  0  0
   10.6200   -3.3290   24.2100 C   0  0  0  0  0  0  0  0  0  0  0  0
   11.4160   -2.1950   23.4950 C   0  0  0  0  0  0  0  0  0  0  0  0
    7.9050   -1.6600   18.6130 H   0  0  0  0  0  0  0  0  0  0  0  0
    2.2240    1.7430   21.2610 H   0  0  0  0  0  0  0  0  0  0  0  0
    3.5900    0.8320   23.1580 H   0  0  0  0  0  0  0  0  0  0  0  0
    4.5250    0.3710   17.3430 H   0  0  0  0  0  0  0  0  0  0  0  0
    2.9450    1.3180   18.9160 H   0  0  0  0  0  0  0  0  0  0  0  0
    5.6560   -0.4460   22.7030 H   0  0  0  0  0  0  0  0  0  0  0  0
    7.9560   -2.1770   24.0660 H   0  0  0  0  0  0  0  0  0  0  0  0
    8.7950   -4.5540   23.9450 H   0  0  0  0  0  0  0  0  0  0  0  0
    9.6270   -4.1670   22.4650 H   0  0  0  0  0  0  0  0  0  0  0  0
   13.6140   -2.1060   23.6920 H   0  0  0  0  0  0  0  0  0  0  0  0
   12.7700   -2.1880   25.2440 H   0  0  0  0  0  0  0  0  0  0  0  0
   12.8090   -0.6790   24.3370 H   0  0  0  0  0  0  0  0  0  0  0  0
   10.2540   -0.4980   24.2340 H   0  0  0  0  0  0  0  0  0  0  0  0
   10.9820   -0.2520   22.6420 H   0  0  0  0  0  0  0  0  0  0  0  0
   10.2970   -2.9570   25.1860 H   0  0  0  0  0  0  0  0  0  0  0  0
   11.2670   -4.1920   24.3990 H   0  0  0  0  0  0  0  0  0  0  0  0
   11.7030   -2.5520   22.4970 H   0  0  0  0  0  0  0  0  0  0  0  0
  4  3  2  0
  6  5  1  0
  7  3  1  0
  8  5  2  0
  9  6  2  0
 10  4  1  0
 11  2  2  0
 12 11  1  0
 13  1  2  0
 14  7  2  0
 14  8  1  0
 15  9  1  0
 15 10  2  0
 15 14  1  0
 16 10  1  0
 16 11  1  0
 16 13  1  0
 17 12  1  0
 17 13  1  0
 18 12  1  0
 20 17  1  0
 21 18  1  0
 22 19  1  0
 22 20  1  0
 22 21  1  0
  4 23  1  0
  5 24  1  0
  6 25  1  0
  7 26  1  0
  8 27  1  0
  9 28  1  0
 12 29  1  0
 18 30  1  0
 18 31  1  0
 19 32  1  0
 19 33  1  0
 19 34  1  0
 20 35  1  0
 20 36  1  0
 21 37  1  0
 21 38  1  0
 22 39  1  0
M  END
>  <Favorite_cresset>
false

>  <Protein_cresset>
sars_P

>  <MW_cresset>
295.3

>  <#Atoms_cresset>
22

>  <SlogP_cresset>
2.8

>  <TPSA_cresset>
53.5

>  <Flexibility_cresset>
1.1

>  <HBA_cresset>
5

>  <HBD_cresset>
0

>  <Rof5_cresset>
0

>  <Confs_cresset>
0

>  <Poses_cresset>
0

$$$$
predicted (18)
  xed2sdf           3D
 
 56 61  0  0  1  0  0  0  0  0999 V2000
  -10.7950    2.4420  -24.3280 O   0  0  0  0  0  0  0  0  0  0  0  0
   -8.7010    0.6860  -21.4180 O   0  0  0  0  0  0  0  0  0  0  0  0
   -6.2400   -0.4370  -17.9030 N   0  0  0  0  0  0  0  0  0  0  0  0
   -5.8420    2.9630  -24.1040 N   0  0  0  0  0  0  0  0  0  0  0  0
  -10.2820    1.3430  -24.1720 C   0  0  0  0  0  0  0  0  0  0  0  0
   -8.3120   -0.3680  -21.8790 C   0  0  0  0  0  0  0  0  0  0  0  0
   -6.9220   -0.8840  -18.9700 C   0  0  0  0  0  0  0  0  0  0  0  0
   -7.2110    2.7970  -24.0910 C   0  0  0  0  0  0  0  0  0  0  0  0
  -13.2530   -0.7550  -22.9980 C   0  0  0  0  0  0  0  0  0  0  0  0
  -12.4740    0.2860  -23.5200 C   0  0  0  0  0  0  0  0  0  0  0  0
  -11.2290   -1.9950  -22.4980 C   0  0  0  0  0  0  0  0  0  0  0  0
   -2.8270    1.3430  -20.8230 C   0  0  0  0  0  0  0  0  0  0  0  0
   -3.5300    0.8780  -21.9450 C   0  0  0  0  0  0  0  0  0  0  0  0
   -7.6240    3.3090  -22.9050 C   0  0  0  0  0  0  0  0  0  0  0  0
  -12.6250   -1.8940  -22.4910 C   0  0  0  0  0  0  0  0  0  0  0  0
  -11.0680    0.1840  -23.5860 C   0  0  0  0  0  0  0  0  0  0  0  0
  -10.4260   -0.9770  -23.0810 C   0  0  0  0  0  0  0  0  0  0  0  0
   -5.0810    0.2090  -18.0980 C   0  0  0  0  0  0  0  0  0  0  0  0
   -3.3410    1.1320  -19.5370 C   0  0  0  0  0  0  0  0  0  0  0  0
   -4.7480    0.2060  -21.7850 C   0  0  0  0  0  0  0  0  0  0  0  0
   -6.4710   -0.6860  -20.2810 C   0  0  0  0  0  0  0  0  0  0  0  0
   -6.4730    3.7840  -22.2200 C   0  0  0  0  0  0  0  0  0  0  0  0
   -4.5450    0.4380  -19.3720 C   0  0  0  0  0  0  0  0  0  0  0  0
   -5.2530   -0.0210  -20.4930 C   0  0  0  0  0  0  0  0  0  0  0  0
   -7.2700   -1.0940  -21.3620 N   0  0  0  0  0  0  0  0  0  0  0  0
   -8.9530    1.0970  -24.5160 N   0  0  0  0  0  0  0  0  0  0  0  0
   -5.3920    3.5720  -22.9570 N   0  0  0  0  0  0  0  0  0  0  0  0
   -8.0940    2.1490  -25.1210 C   0  0  0  0  0  0  0  0  0  0  0  0
   -8.0930   -3.2980  -24.3020 C   0  0  0  0  0  0  0  0  0  0  0  0
   -7.0400   -2.3490  -22.0620 C   0  0  0  0  0  0  0  0  0  0  0  0
   -8.3160   -0.2300  -24.3440 C   0  0  0  0  0  0  0  0  0  0  0  0
   -8.2730   -2.4980  -22.9760 C   0  0  0  0  0  0  0  0  0  0  0  0
   -8.8830   -1.0440  -23.1160 C   0  0  0  0  0  0  0  0  0  0  0  0
  -13.3690   -2.8710  -21.9350 F   0  0  0  0  0  0  0  0  0  0  0  0
   -5.1910    2.7030  -24.8380 H   0  0  0  0  0  0  0  0  0  0  0  0
   -7.8590   -1.4030  -18.7640 H   0  0  0  0  0  0  0  0  0  0  0  0
  -14.3320   -0.6530  -22.9310 H   0  0  0  0  0  0  0  0  0  0  0  0
  -12.9660    1.1890  -23.8680 H   0  0  0  0  0  0  0  0  0  0  0  0
  -10.8110   -2.8690  -22.0170 H   0  0  0  0  0  0  0  0  0  0  0  0
   -1.8880    1.8730  -20.9480 H   0  0  0  0  0  0  0  0  0  0  0  0
   -3.1410    1.0460  -22.9440 H   0  0  0  0  0  0  0  0  0  0  0  0
   -8.6470    3.3410  -22.5620 H   0  0  0  0  0  0  0  0  0  0  0  0
   -4.5820    0.5640  -17.2040 H   0  0  0  0  0  0  0  0  0  0  0  0
   -2.8110    1.5110  -18.6740 H   0  0  0  0  0  0  0  0  0  0  0  0
   -5.2950   -0.1290  -22.6610 H   0  0  0  0  0  0  0  0  0  0  0  0
   -6.3640    4.2620  -21.2530 H   0  0  0  0  0  0  0  0  0  0  0  0
   -8.7120    2.9160  -25.6100 H   0  0  0  0  0  0  0  0  0  0  0  0
   -7.4650    1.7000  -25.8980 H   0  0  0  0  0  0  0  0  0  0  0  0
   -7.0450   -3.4110  -24.5980 H   0  0  0  0  0  0  0  0  0  0  0  0
   -8.6320   -2.8550  -25.1450 H   0  0  0  0  0  0  0  0  0  0  0  0
   -8.5160   -4.3020  -24.1860 H   0  0  0  0  0  0  0  0  0  0  0  0
   -6.0920   -2.3030  -22.6040 H   0  0  0  0  0  0  0  0  0  0  0  0
   -6.9830   -3.1710  -21.3400 H   0  0  0  0  0  0  0  0  0  0  0  0
   -7.2320   -0.0820  -24.2340 H   0  0  0  0  0  0  0  0  0  0  0  0
   -8.4620   -0.7710  -25.2840 H   0  0  0  0  0  0  0  0  0  0  0  0
   -8.8980   -3.1210  -22.3300 H   0  0  0  0  0  0  0  0  0  0  0  0
  5  1  2  0
  6  2  2  0
  7  3  2  0
  8  4  1  0
 10  9  1  0
 13 12  1  0
 14  8  2  0
 15  9  2  0
 15 11  1  0
 16  5  1  0
 16 10  2  0
 17 11  2  0
 17 16  1  0
 18  3  1  0
 19 12  2  0
 20 13  2  0
 21  7  1  0
 22 14  1  0
 23 18  2  0
 23 19  1  0
 24 20  1  0
 24 21  2  0
 24 23  1  0
 25  6  1  0
 25 21  1  0
 26  5  1  0
 27  4  1  0
 27 22  2  0
 28  8  1  0
 28 26  1  0
 30 25  1  0
 31 26  1  0
 32 29  1  0
 32 30  1  0
 33  6  1  0
 33 17  1  0
 33 31  1  0
 33 32  1  0
 34 15  1  0
  4 35  1  0
  7 36  1  0
  9 37  1  0
 10 38  1  0
 11 39  1  0
 12 40  1  0
 13 41  1  0
 14 42  1  0
 18 43  1  0
 19 44  1  0
 20 45  1  0
 22 46  1  0
 28 47  1  0
 28 48  1  0
 29 49  1  0
 29 50  1  0
 29 51  1  0
 30 52  1  0
 30 53  1  0
 31 54  1  0
 31 55  1  0
 32 56  1  0
M  END
>  <Favorite_cresset>
false

>  <Protein_cresset>
sars_P

>  <MW_cresset>
455.5

>  <#Atoms_cresset>
34

>  <SlogP_cresset>
3.9

>  <TPSA_cresset>
82.2

>  <Flexibility_cresset>
2.9

>  <HBA_cresset>
7

>  <HBD_cresset>
1

>  <Rof5_cresset>
0

>  <Confs_cresset>
0

>  <Poses_cresset>
0

$$$$
predicted (19)
  xed2sdf           3D
 
 42 45  0  0  1  0  0  0  0  0999 V2000
  -13.9710    0.0940  -23.6260 Cl  0  0  0  0  0  0  0  0  0  0  0  0
  -13.4180   -2.6540  -22.1280 Cl  0  0  0  0  0  0  0  0  0  0  0  0
   -8.5370   -0.5480  -21.0070 O   0  0  0  0  0  0  0  0  0  0  0  0
   -6.0210   -0.3340  -17.7770 N   0  0  0  0  0  0  0  0  0  0  0  0
   -6.4590   -5.1940  -22.6790 O   0  0  0  0  0  0  0  0  0  0  0  0
   -7.8590   -1.3620  -21.6110 C   0  0  0  0  0  0  0  0  0  0  0  0
   -6.5260   -1.0850  -18.7760 C   0  0  0  0  0  0  0  0  0  0  0  0
  -11.3040    0.2520  -24.0370 C   0  0  0  0  0  0  0  0  0  0  0  0
   -9.9960   -0.2420  -23.9780 C   0  0  0  0  0  0  0  0  0  0  0  0
  -10.7870   -2.1480  -22.6860 C   0  0  0  0  0  0  0  0  0  0  0  0
   -2.6620    1.4210  -20.7730 C   0  0  0  0  0  0  0  0  0  0  0  0
   -3.2500    0.7320  -21.8470 C   0  0  0  0  0  0  0  0  0  0  0  0
  -12.3580   -0.5100  -23.5200 C   0  0  0  0  0  0  0  0  0  0  0  0
  -12.1070   -1.7160  -22.8470 C   0  0  0  0  0  0  0  0  0  0  0  0
   -9.7230   -1.4430  -23.2830 C   0  0  0  0  0  0  0  0  0  0  0  0
   -4.9520    0.4390  -18.0250 C   0  0  0  0  0  0  0  0  0  0  0  0
   -3.2180    1.3210  -19.4890 C   0  0  0  0  0  0  0  0  0  0  0  0
   -4.3660   -0.0980  -21.6390 C   0  0  0  0  0  0  0  0  0  0  0  0
   -6.0030   -1.0760  -20.0740 C   0  0  0  0  0  0  0  0  0  0  0  0
   -4.3430    0.5020  -19.2820 C   0  0  0  0  0  0  0  0  0  0  0  0
   -4.9020   -0.2410  -20.3440 C   0  0  0  0  0  0  0  0  0  0  0  0
   -6.6460   -1.8120  -21.1040 N   0  0  0  0  0  0  0  0  0  0  0  0
   -6.0320   -3.1100  -21.4820 C   0  0  0  0  0  0  0  0  0  0  0  0
   -8.0180   -3.3770  -23.1070 C   0  0  0  0  0  0  0  0  0  0  0  0
   -6.5630   -3.7670  -22.7740 C   0  0  0  0  0  0  0  0  0  0  0  0
   -8.2730   -1.8610  -22.9990 C   0  0  0  0  0  0  0  0  0  0  0  0
   -7.3400   -5.5470  -22.4620 H   0  0  0  0  0  0  0  0  0  0  0  0
   -7.3950   -1.6970  -18.5400 H   0  0  0  0  0  0  0  0  0  0  0  0
  -11.4910    1.2360  -24.4590 H   0  0  0  0  0  0  0  0  0  0  0  0
   -9.1940    0.3480  -24.4120 H   0  0  0  0  0  0  0  0  0  0  0  0
  -10.5970   -3.0060  -22.0500 H   0  0  0  0  0  0  0  0  0  0  0  0
   -1.7870    2.0470  -20.9400 H   0  0  0  0  0  0  0  0  0  0  0  0
   -2.8440    0.8480  -22.8500 H   0  0  0  0  0  0  0  0  0  0  0  0
   -4.6100    1.0530  -17.1950 H   0  0  0  0  0  0  0  0  0  0  0  0
   -2.7880    1.8880  -18.6690 H   0  0  0  0  0  0  0  0  0  0  0  0
   -4.8190   -0.6040  -22.4870 H   0  0  0  0  0  0  0  0  0  0  0  0
   -4.9550   -2.9840  -21.6000 H   0  0  0  0  0  0  0  0  0  0  0  0
   -6.1650   -3.8050  -20.6490 H   0  0  0  0  0  0  0  0  0  0  0  0
   -8.6760   -3.9160  -22.4190 H   0  0  0  0  0  0  0  0  0  0  0  0
   -8.2600   -3.7040  -24.1190 H   0  0  0  0  0  0  0  0  0  0  0  0
   -5.9070   -3.4210  -23.5800 H   0  0  0  0  0  0  0  0  0  0  0  0
   -7.6240   -1.3720  -23.7340 H   0  0  0  0  0  0  0  0  0  0  0  0
  6  3  2  0
  7  4  2  0
  9  8  2  0
 12 11  1  0
 13  1  1  0
 13  8  1  0
 14  2  1  0
 14 10  1  0
 14 13  2  0
 15  9  1  0
 15 10  2  0
 16  4  1  0
 17 11  2  0
 18 12  2  0
 19  7  1  0
 20 16  2  0
 20 17  1  0
 21 18  1  0
 21 19  2  0
 21 20  1  0
 22  6  1  0
 22 19  1  0
 23 22  1  0
 25  5  1  0
 25 23  1  0
 25 24  1  0
 26  6  1  0
 26 15  1  0
 26 24  1  0
  5 27  1  0
  7 28  1  0
  8 29  1  0
  9 30  1  0
 10 31  1  0
 11 32  1  0
 12 33  1  0
 16 34  1  0
 17 35  1  0
 18 36  1  0
 23 37  1  0
 23 38  1  0
 24 39  1  0
 24 40  1  0
 25 41  1  0
 26 42  1  0
M  END
>  <Favorite_cresset>
false

>  <Protein_cresset>
sars_P

>  <MW_cresset>
387.3

>  <#Atoms_cresset>
26

>  <SlogP_cresset>
4.9

>  <TPSA_cresset>
53.4

>  <Flexibility_cresset>
2.0

>  <HBA_cresset>
4

>  <HBD_cresset>
1

>  <Rof5_cresset>
0

>  <Confs_cresset>
0

>  <Poses_cresset>
0

$$$$
predicted (20)
  xed2sdf           3D
 
 66 71  0  0  1  0  0  0  0  0999 V2000
  -13.6100   -2.8680  -21.8550 Cl  0  0  0  0  0  0  0  0  0  0  0  0
  -10.7020    2.7100  -24.3250 O   0  0  0  0  0  0  0  0  0  0  0  0
   -5.5470    2.4720  -24.5010 O   0  0  0  0  0  0  0  0  0  0  0  0
   -8.4280    0.5900  -21.2200 O   0  0  0  0  0  0  0  0  0  0  0  0
   -6.0460   -0.6800  -18.0520 N   0  0  0  0  0  0  0  0  0  0  0  0
  -10.1800    1.6350  -24.0730 C   0  0  0  0  0  0  0  0  0  0  0  0
   -6.6740    2.7590  -24.1300 C   0  0  0  0  0  0  0  0  0  0  0  0
   -8.1260   -0.3980  -21.8570 C   0  0  0  0  0  0  0  0  0  0  0  0
   -6.6530   -1.1690  -19.1510 C   0  0  0  0  0  0  0  0  0  0  0  0
   -7.3240   -6.4830  -26.8350 C   0  0  0  0  0  0  0  0  0  0  0  0
   -8.4910   -6.4930  -26.0580 C   0  0  0  0  0  0  0  0  0  0  0  0
   -6.4160   -5.4250  -26.7080 C   0  0  0  0  0  0  0  0  0  0  0  0
  -13.2130   -0.4800  -23.0810 C   0  0  0  0  0  0  0  0  0  0  0  0
  -12.4160    0.5700  -23.5500 C   0  0  0  0  0  0  0  0  0  0  0  0
   -8.7830   -5.4160  -25.2010 C   0  0  0  0  0  0  0  0  0  0  0  0
   -6.6960   -4.3550  -25.8500 C   0  0  0  0  0  0  0  0  0  0  0  0
  -11.2140   -1.7090  -22.4750 C   0  0  0  0  0  0  0  0  0  0  0  0
   -2.6550    1.3670  -20.8380 C   0  0  0  0  0  0  0  0  0  0  0  0
   -3.3060    0.8920  -21.9860 C   0  0  0  0  0  0  0  0  0  0  0  0
  -12.6100   -1.6040  -22.5210 C   0  0  0  0  0  0  0  0  0  0  0  0
  -11.0030    0.4730  -23.5400 C   0  0  0  0  0  0  0  0  0  0  0  0
   -7.8960   -4.3180  -25.1130 C   0  0  0  0  0  0  0  0  0  0  0  0
  -10.3860   -0.7030  -23.0280 C   0  0  0  0  0  0  0  0  0  0  0  0
   -4.9280    0.0520  -18.2040 C   0  0  0  0  0  0  0  0  0  0  0  0
   -3.1980    1.1020  -19.5740 C   0  0  0  0  0  0  0  0  0  0  0  0
   -4.4790    0.1310  -21.8790 C   0  0  0  0  0  0  0  0  0  0  0  0
   -6.1810   -0.9450  -20.4600 C   0  0  0  0  0  0  0  0  0  0  0  0
   -4.3550    0.3110  -19.4580 C   0  0  0  0  0  0  0  0  0  0  0  0
   -4.9940   -0.1930  -20.6120 C   0  0  0  0  0  0  0  0  0  0  0  0
   -6.9280    3.4670  -22.9700 N   0  0  0  0  0  0  0  0  0  0  0  0
   -7.0460   -1.2080  -21.5700 N   0  0  0  0  0  0  0  0  0  0  0  0
   -8.8110    1.4130  -24.2550 N   0  0  0  0  0  0  0  0  0  0  0  0
   -5.9070    4.0080  -22.0640 C   0  0  0  0  0  0  0  0  0  0  0  0
   -7.9360    2.4050  -24.9450 C   0  0  0  0  0  0  0  0  0  0  0  0
   -8.4070   -2.9370  -24.6890 C   0  0  0  0  0  0  0  0  0  0  0  0
   -6.9380   -2.3330  -22.5350 C   0  0  0  0  0  0  0  0  0  0  0  0
   -8.2610    0.0490  -24.2330 C   0  0  0  0  0  0  0  0  0  0  0  0
   -8.3210   -2.3690  -23.2330 C   0  0  0  0  0  0  0  0  0  0  0  0
   -8.8440   -0.8700  -23.1120 C   0  0  0  0  0  0  0  0  0  0  0  0
   -7.5940   -1.6890  -18.9770 H   0  0  0  0  0  0  0  0  0  0  0  0
   -7.1290   -7.2850  -27.5400 H   0  0  0  0  0  0  0  0  0  0  0  0
   -9.1930   -7.3160  -26.1470 H   0  0  0  0  0  0  0  0  0  0  0  0
   -5.5110   -5.4150  -27.3050 H   0  0  0  0  0  0  0  0  0  0  0  0
  -14.2960   -0.4110  -23.1200 H   0  0  0  0  0  0  0  0  0  0  0  0
  -12.9100    1.4580  -23.9350 H   0  0  0  0  0  0  0  0  0  0  0  0
   -9.7380   -5.3960  -24.6790 H   0  0  0  0  0  0  0  0  0  0  0  0
   -6.0260   -3.4980  -25.8400 H   0  0  0  0  0  0  0  0  0  0  0  0
  -10.8010   -2.5890  -21.9990 H   0  0  0  0  0  0  0  0  0  0  0  0
   -1.7490    1.9600  -20.9310 H   0  0  0  0  0  0  0  0  0  0  0  0
   -2.9080    1.1310  -22.9660 H   0  0  0  0  0  0  0  0  0  0  0  0
   -4.5060    0.4710  -17.2940 H   0  0  0  0  0  0  0  0  0  0  0  0
   -2.7230    1.5190  -18.6940 H   0  0  0  0  0  0  0  0  0  0  0  0
   -4.9810   -0.2010  -22.7820 H   0  0  0  0  0  0  0  0  0  0  0  0
   -7.8950    3.6620  -22.7550 H   0  0  0  0  0  0  0  0  0  0  0  0
   -4.9390    4.0960  -22.5700 H   0  0  0  0  0  0  0  0  0  0  0  0
   -5.7900    3.3390  -21.2020 H   0  0  0  0  0  0  0  0  0  0  0  0
   -6.2340    5.0010  -21.7240 H   0  0  0  0  0  0  0  0  0  0  0  0
   -7.6140    1.9900  -25.9100 H   0  0  0  0  0  0  0  0  0  0  0  0
   -8.4900    3.3380  -25.1250 H   0  0  0  0  0  0  0  0  0  0  0  0
   -9.4710   -2.8970  -24.9390 H   0  0  0  0  0  0  0  0  0  0  0  0
   -7.9070   -2.2450  -25.3700 H   0  0  0  0  0  0  0  0  0  0  0  0
   -6.1340   -2.1200  -23.2510 H   0  0  0  0  0  0  0  0  0  0  0  0
   -6.7460   -3.2930  -22.0420 H   0  0  0  0  0  0  0  0  0  0  0  0
   -7.1710    0.1000  -24.1060 H   0  0  0  0  0  0  0  0  0  0  0  0
   -8.4650   -0.3530  -25.2250 H   0  0  0  0  0  0  0  0  0  0  0  0
   -8.9210   -3.0180  -22.5900 H   0  0  0  0  0  0  0  0  0  0  0  0
  6  2  2  0
  7  3  2  0
  8  4  2  0
  9  5  2  0
 11 10  2  0
 12 10  1  0
 14 13  1  0
 15 11  1  0
 16 12  2  0
 19 18  1  0
 20  1  1  0
 20 13  2  0
 20 17  1  0
 21  6  1  0
 21 14  2  0
 22 15  2  0
 22 16  1  0
 23 17  2  0
 23 21  1  0
 24  5  1  0
 25 18  2  0
 26 19  2  0
 27  9  1  0
 28 24  2  0
 28 25  1  0
 29 26  1  0
 29 27  2  0
 29 28  1  0
 30  7  1  0
 31  8  1  0
 31 27  1  0
 32  6  1  0
 33 30  1  0
 34  7  1  0
 34 32  1  0
 35 22  1  0
 36 31  1  0
 37 32  1  0
 38 35  1  0
 38 36  1  0
 39  8  1  0
 39 23  1  0
 39 37  1  0
 39 38  1  0
  9 40  1  0
 10 41  1  0
 11 42  1  0
 12 43  1  0
 13 44  1  0
 14 45  1  0
 15 46  1  0
 16 47  1  0
 17 48  1  0
 18 49  1  0
 19 50  1  0
 24 51  1  0
 25 52  1  0
 26 53  1  0
 30 54  1  0
 33 55  1  0
 33 56  1  0
 33 57  1  0
 34 58  1  0
 34 59  1  0
 35 60  1  0
 35 61  1  0
 36 62  1  0
 36 63  1  0
 37 64  1  0
 37 65  1  0
 38 66  1  0
M  END
>  <Favorite_cresset>
false

>  <Protein_cresset>
sars_P

>  <MW_cresset>
539.0

>  <#Atoms_cresset>
39

>  <SlogP_cresset>
4.3

>  <TPSA_cresset>
82.6

>  <Flexibility_cresset>
4.9

>  <HBA_cresset>
7

>  <HBD_cresset>
1

>  <Rof5_cresset>
1

>  <Confs_cresset>
0

>  <Poses_cresset>
0

$$$$
predicted (21)
  xed2sdf           3D
 
 63 68  0  0  1  0  0  0  0  0999 V2000
  -10.9860    2.2100  -24.3810 O   0  0  0  0  0  0  0  0  0  0  0  0
   -6.0470    2.1340  -25.0500 O   0  0  0  0  0  0  0  0  0  0  0  0
   -8.9130    0.4120  -21.5040 O   0  0  0  0  0  0  0  0  0  0  0  0
   -6.2620   -0.7130  -18.0960 N   0  0  0  0  0  0  0  0  0  0  0  0
  -10.5200    1.0850  -24.2700 C   0  0  0  0  0  0  0  0  0  0  0  0
   -7.2040    2.2720  -24.6870 C   0  0  0  0  0  0  0  0  0  0  0  0
   -8.4880   -0.6020  -22.0260 C   0  0  0  0  0  0  0  0  0  0  0  0
   -6.9470   -1.1550  -19.1730 C   0  0  0  0  0  0  0  0  0  0  0  0
  -13.5220   -0.8920  -22.9780 C   0  0  0  0  0  0  0  0  0  0  0  0
  -12.7390    0.1050  -23.5630 C   0  0  0  0  0  0  0  0  0  0  0  0
  -11.5030   -2.1740  -22.4970 C   0  0  0  0  0  0  0  0  0  0  0  0
   -2.9510    1.2710  -21.0120 C   0  0  0  0  0  0  0  0  0  0  0  0
   -3.6700    0.8330  -22.1350 C   0  0  0  0  0  0  0  0  0  0  0  0
  -12.9010   -2.0160  -22.4280 C   0  0  0  0  0  0  0  0  0  0  0  0
  -11.3270   -0.0330  -23.6490 C   0  0  0  0  0  0  0  0  0  0  0  0
  -10.6910   -1.2010  -23.1360 C   0  0  0  0  0  0  0  0  0  0  0  0
   -5.1300   -0.0080  -18.2860 C   0  0  0  0  0  0  0  0  0  0  0  0
   -3.4370    1.0080  -19.7230 C   0  0  0  0  0  0  0  0  0  0  0  0
   -4.8710    0.1220  -21.9880 C   0  0  0  0  0  0  0  0  0  0  0  0
   -6.5430   -0.8950  -20.4940 C   0  0  0  0  0  0  0  0  0  0  0  0
   -4.6270    0.2760  -19.5650 C   0  0  0  0  0  0  0  0  0  0  0  0
   -5.3470   -0.1740  -20.6960 C   0  0  0  0  0  0  0  0  0  0  0  0
   -7.5630    2.9420  -23.5330 N   0  0  0  0  0  0  0  0  0  0  0  0
   -7.3700   -1.2870  -21.5860 N   0  0  0  0  0  0  0  0  0  0  0  0
   -9.2250    0.7670  -24.6960 N   0  0  0  0  0  0  0  0  0  0  0  0
   -8.3930    1.7220  -25.4860 C   0  0  0  0  0  0  0  0  0  0  0  0
   -6.6270    3.6720  -22.6610 C   0  0  0  0  0  0  0  0  0  0  0  0
   -5.9520    6.1590  -23.4690 C   0  0  0  0  0  0  0  0  0  0  0  0
   -5.8320    6.0700  -21.9750 C   0  0  0  0  0  0  0  0  0  0  0  0
   -6.8250    5.1950  -22.6900 C   0  0  0  0  0  0  0  0  0  0  0  0
   -8.2690   -3.5570  -24.4030 C   0  0  0  0  0  0  0  0  0  0  0  0
   -7.1730   -2.5400  -22.3070 C   0  0  0  0  0  0  0  0  0  0  0  0
   -8.6390   -0.5840  -24.5110 C   0  0  0  0  0  0  0  0  0  0  0  0
   -8.5010   -2.7640  -23.0870 C   0  0  0  0  0  0  0  0  0  0  0  0
   -9.1380   -1.3130  -23.2240 C   0  0  0  0  0  0  0  0  0  0  0  0
  -13.6590   -2.9550  -21.8290 F   0  0  0  0  0  0  0  0  0  0  0  0
   -7.8580   -1.7200  -18.9720 H   0  0  0  0  0  0  0  0  0  0  0  0
  -14.6060   -0.7910  -22.9400 H   0  0  0  0  0  0  0  0  0  0  0  0
  -13.2450    0.9800  -23.9650 H   0  0  0  0  0  0  0  0  0  0  0  0
  -11.0840   -3.0560  -22.0280 H   0  0  0  0  0  0  0  0  0  0  0  0
   -2.0240    1.8240  -21.1440 H   0  0  0  0  0  0  0  0  0  0  0  0
   -3.2960    1.0530  -23.1290 H   0  0  0  0  0  0  0  0  0  0  0  0
   -4.6140    0.3360  -17.3890 H   0  0  0  0  0  0  0  0  0  0  0  0
   -2.8930    1.3720  -18.8550 H   0  0  0  0  0  0  0  0  0  0  0  0
   -5.4200   -0.1900  -22.8740 H   0  0  0  0  0  0  0  0  0  0  0  0
   -8.5490    2.9400  -23.2970 H   0  0  0  0  0  0  0  0  0  0  0  0
   -9.0030    2.5870  -25.7780 H   0  0  0  0  0  0  0  0  0  0  0  0
   -8.0020    1.2350  -26.3890 H   0  0  0  0  0  0  0  0  0  0  0  0
   -5.5900    3.3780  -22.8800 H   0  0  0  0  0  0  0  0  0  0  0  0
   -6.8490    3.3600  -21.6420 H   0  0  0  0  0  0  0  0  0  0  0  0
   -5.1410    5.7270  -24.0510 H   0  0  0  0  0  0  0  0  0  0  0  0
   -6.3960    7.0700  -23.8750 H   0  0  0  0  0  0  0  0  0  0  0  0
   -4.9170    5.6170  -21.6030 H   0  0  0  0  0  0  0  0  0  0  0  0
   -6.2590    6.8520  -21.3540 H   0  0  0  0  0  0  0  0  0  0  0  0
   -7.8680    5.4690  -22.5700 H   0  0  0  0  0  0  0  0  0  0  0  0
   -9.2170   -3.7590  -24.9150 H   0  0  0  0  0  0  0  0  0  0  0  0
   -7.5930   -3.0310  -25.0910 H   0  0  0  0  0  0  0  0  0  0  0  0
   -7.8130   -4.5310  -24.1870 H   0  0  0  0  0  0  0  0  0  0  0  0
   -6.3140   -2.4250  -22.9860 H   0  0  0  0  0  0  0  0  0  0  0  0
   -6.9780   -3.3640  -21.6080 H   0  0  0  0  0  0  0  0  0  0  0  0
   -7.5450   -0.4900  -24.4400 H   0  0  0  0  0  0  0  0  0  0  0  0
   -8.8940   -1.1800  -25.4000 H   0  0  0  0  0  0  0  0  0  0  0  0
   -9.1390   -3.3870  -22.4460 H   0  0  0  0  0  0  0  0  0  0  0  0
  5  1  2  0
  6  2  2  0
  7  3  2  0
  8  4  2  0
 10  9  1  0
 13 12  1  0
 14  9  2  0
 14 11  1  0
 15  5  1  0
 15 10  2  0
 16 11  2  0
 16 15  1  0
 17  4  1  0
 18 12  2  0
 19 13  2  0
 20  8  1  0
 21 17  2  0
 21 18  1  0
 22 19  1  0
 22 20  2  0
 22 21  1  0
 23  6  1  0
 24  7  1  0
 24 20  1  0
 25  5  1  0
 26  6  1  0
 26 25  1  0
 27 23  1  0
 29 28  1  0
 30 27  1  0
 30 28  1  0
 30 29  1  0
 32 24  1  0
 33 25  1  0
 34 31  1  0
 34 32  1  0
 35  7  1  0
 35 16  1  0
 35 33  1  0
 35 34  1  0
 36 14  1  0
  8 37  1  0
  9 38  1  0
 10 39  1  0
 11 40  1  0
 12 41  1  0
 13 42  1  0
 17 43  1  0
 18 44  1  0
 19 45  1  0
 23 46  1  0
 26 47  1  0
 26 48  1  0
 27 49  1  0
 27 50  1  0
 28 51  1  0
 28 52  1  0
 29 53  1  0
 29 54  1  0
 30 55  1  0
 31 56  1  0
 31 57  1  0
 31 58  1  0
 32 59  1  0
 32 60  1  0
 33 61  1  0
 33 62  1  0
 34 63  1  0
M  END
>  <Favorite_cresset>
false

>  <Protein_cresset>
sars_P

>  <MW_cresset>
486.5

>  <#Atoms_cresset>
36

>  <SlogP_cresset>
3.5

>  <TPSA_cresset>
82.6

>  <Flexibility_cresset>
4.9

>  <HBA_cresset>
7

>  <HBD_cresset>
1

>  <Rof5_cresset>
0

>  <Confs_cresset>
0

>  <Poses_cresset>
0

$$$$
predicted (22)
  xed2sdf           3D
 
 40 44  0  0  1  0  0  0  0  0999 V2000
   -8.1860   -3.4440  -23.0840 O   0  0  0  0  0  0  0  0  0  0  0  0
   -7.7750    0.9350  -21.7890 O   0  0  0  0  0  0  0  0  0  0  0  0
   -6.2440   -0.2490  -18.0910 N   0  0  0  0  0  0  0  0  0  0  0  0
  -10.7390    1.1980  -24.1840 N   0  0  0  0  0  0  0  0  0  0  0  0
   -3.5980    0.5190  -21.2110 O   0  0  0  0  0  0  0  0  0  0  0  0
   -7.7320   -2.4040  -22.6350 C   0  0  0  0  0  0  0  0  0  0  0  0
   -7.4760   -0.2110  -22.0880 C   0  0  0  0  0  0  0  0  0  0  0  0
   -5.0970    0.4380  -17.8940 C   0  0  0  0  0  0  0  0  0  0  0  0
   -6.5050   -0.7170  -19.3310 C   0  0  0  0  0  0  0  0  0  0  0  0
   -9.6460    0.4720  -23.8720 C   0  0  0  0  0  0  0  0  0  0  0  0
   -4.1590    0.6540  -18.9070 C   0  0  0  0  0  0  0  0  0  0  0  0
  -13.5940   -2.2400  -22.3980 C   0  0  0  0  0  0  0  0  0  0  0  0
  -12.4860   -2.8630  -21.8410 C   0  0  0  0  0  0  0  0  0  0  0  0
   -4.4360    0.1780  -20.1860 C   0  0  0  0  0  0  0  0  0  0  0  0
   -5.6420   -0.5150  -20.4280 C   0  0  0  0  0  0  0  0  0  0  0  0
  -11.9440    0.6920  -23.8800 C   0  0  0  0  0  0  0  0  0  0  0  0
  -13.3960   -1.0850  -23.1450 C   0  0  0  0  0  0  0  0  0  0  0  0
  -11.1680   -2.4570  -22.1320 C   0  0  0  0  0  0  0  0  0  0  0  0
   -9.6470   -0.7360  -23.1370 C   0  0  0  0  0  0  0  0  0  0  0  0
  -12.0920   -0.5710  -23.3060 C   0  0  0  0  0  0  0  0  0  0  0  0
  -10.9400   -1.2880  -22.8650 C   0  0  0  0  0  0  0  0  0  0  0  0
   -8.3600   -1.1630  -22.5930 N   0  0  0  0  0  0  0  0  0  0  0  0
   -6.4550   -2.2590  -22.1060 N   0  0  0  0  0  0  0  0  0  0  0  0
   -4.2210    0.8840  -22.4460 C   0  0  0  0  0  0  0  0  0  0  0  0
   -5.0600   -0.3210  -22.9400 C   0  0  0  0  0  0  0  0  0  0  0  0
   -6.0920   -0.8430  -21.8650 C   0  0  0  0  0  0  0  0  0  0  0  0
   -4.9620    0.9110  -16.9250 H   0  0  0  0  0  0  0  0  0  0  0  0
   -7.4760   -1.1920  -19.4670 H   0  0  0  0  0  0  0  0  0  0  0  0
   -8.7010    0.9210  -24.1620 H   0  0  0  0  0  0  0  0  0  0  0  0
   -3.2740    1.2550  -18.7310 H   0  0  0  0  0  0  0  0  0  0  0  0
  -14.5860   -2.6460  -22.2210 H   0  0  0  0  0  0  0  0  0  0  0  0
  -12.6700   -3.6460  -21.1380 H   0  0  0  0  0  0  0  0  0  0  0  0
  -12.8210    1.3080  -24.1110 H   0  0  0  0  0  0  0  0  0  0  0  0
  -14.2600   -0.5830  -23.5720 H   0  0  0  0  0  0  0  0  0  0  0  0
  -10.3380   -3.0250  -21.7450 H   0  0  0  0  0  0  0  0  0  0  0  0
   -5.7910   -3.0240  -22.0620 H   0  0  0  0  0  0  0  0  0  0  0  0
   -3.4570    1.1580  -23.1810 H   0  0  0  0  0  0  0  0  0  0  0  0
   -4.8660    1.7590  -22.2880 H   0  0  0  0  0  0  0  0  0  0  0  0
   -4.3530   -1.1160  -23.2180 H   0  0  0  0  0  0  0  0  0  0  0  0
   -5.5720   -0.0130  -23.8600 H   0  0  0  0  0  0  0  0  0  0  0  0
  6  1  2  0
  7  2  2  0
  8  3  2  0
  9  3  1  0
 10  4  2  0
 11  8  1  0
 13 12  1  0
 14  5  1  0
 14 11  2  0
 15  9  2  0
 15 14  1  0
 16  4  1  0
 17 12  2  0
 18 13  2  0
 19 10  1  0
 20 16  2  0
 20 17  1  0
 21 18  1  0
 21 19  2  0
 21 20  1  0
 22  6  1  0
 22  7  1  0
 22 19  1  0
 23  6  1  0
 24  5  1  0
 25 24  1  0
 26  7  1  0
 26 15  1  0
 26 23  1  0
 26 25  1  0
  8 27  1  0
  9 28  1  0
 10 29  1  0
 11 30  1  0
 12 31  1  0
 13 32  1  0
 16 33  1  0
 17 34  1  0
 18 35  1  0
 23 36  1  0
 24 37  1  0
 24 38  1  0
 25 39  1  0
 25 40  1  0
M  END
>  <Favorite_cresset>
false

>  <Protein_cresset>
sars_P

>  <MW_cresset>
346.3

>  <#Atoms_cresset>
26

>  <SlogP_cresset>
2.4

>  <TPSA_cresset>
84.4

>  <Flexibility_cresset>
0.8

>  <HBA_cresset>
7

>  <HBD_cresset>
1

>  <Rof5_cresset>
0

>  <Confs_cresset>
0

>  <Poses_cresset>
0

$$$$
predicted (23)
  xed2sdf           3D
 
 68 73  0  0  1  0  0  0  0  0999 V2000
  -13.6300   -2.9320  -21.7950 Cl  0  0  0  0  0  0  0  0  0  0  0  0
  -10.7210    2.5700  -24.3910 O   0  0  0  0  0  0  0  0  0  0  0  0
   -5.5740    2.4040  -24.6030 O   0  0  0  0  0  0  0  0  0  0  0  0
   -8.5020    0.7620  -21.3620 O   0  0  0  0  0  0  0  0  0  0  0  0
   -6.0950   -0.4470  -17.9120 N   0  0  0  0  0  0  0  0  0  0  0  0
  -10.1960    1.4890  -24.1720 C   0  0  0  0  0  0  0  0  0  0  0  0
   -6.7100    2.6550  -24.2290 C   0  0  0  0  0  0  0  0  0  0  0  0
   -8.1630   -0.2950  -21.8570 C   0  0  0  0  0  0  0  0  0  0  0  0
   -6.7400   -0.9160  -18.9980 C   0  0  0  0  0  0  0  0  0  0  0  0
   -8.0580   -6.1440  -28.1800 C   0  0  0  0  0  0  0  0  0  0  0  0
   -6.7940   -5.6700  -27.7940 C   0  0  0  0  0  0  0  0  0  0  0  0
   -9.1290   -6.1000  -27.2730 C   0  0  0  0  0  0  0  0  0  0  0  0
  -13.2140   -0.6020  -23.0970 C   0  0  0  0  0  0  0  0  0  0  0  0
  -12.4170    0.4330  -23.5950 C   0  0  0  0  0  0  0  0  0  0  0  0
   -6.5990   -5.1510  -26.5020 C   0  0  0  0  0  0  0  0  0  0  0  0
   -8.9340   -5.5820  -25.9820 C   0  0  0  0  0  0  0  0  0  0  0  0
  -11.2020   -1.8280  -22.4940 C   0  0  0  0  0  0  0  0  0  0  0  0
   -2.6950    1.4710  -20.7850 C   0  0  0  0  0  0  0  0  0  0  0  0
   -3.3880    1.0140  -21.9150 C   0  0  0  0  0  0  0  0  0  0  0  0
  -12.6070   -1.7150  -22.5230 C   0  0  0  0  0  0  0  0  0  0  0  0
  -11.0020    0.3360  -23.6030 C   0  0  0  0  0  0  0  0  0  0  0  0
   -7.6690   -5.1020  -25.5920 C   0  0  0  0  0  0  0  0  0  0  0  0
  -10.3660   -0.8210  -23.0620 C   0  0  0  0  0  0  0  0  0  0  0  0
   -4.9570    0.2480  -18.0890 C   0  0  0  0  0  0  0  0  0  0  0  0
   -3.2160    1.2340  -19.5070 C   0  0  0  0  0  0  0  0  0  0  0  0
   -4.5870    0.3060  -21.7770 C   0  0  0  0  0  0  0  0  0  0  0  0
   -6.2820   -0.6930  -20.3080 C   0  0  0  0  0  0  0  0  0  0  0  0
   -4.4030    0.4980  -19.3550 C   0  0  0  0  0  0  0  0  0  0  0  0
   -5.0830    0.0220  -20.4920 C   0  0  0  0  0  0  0  0  0  0  0  0
   -6.9780    3.2950  -23.0290 N   0  0  0  0  0  0  0  0  0  0  0  0
   -7.5220   -4.4270  -24.3860 N   0  0  0  0  0  0  0  0  0  0  0  0
   -7.1000   -1.0470  -21.4080 N   0  0  0  0  0  0  0  0  0  0  0  0
   -8.8370    1.2580  -24.4120 N   0  0  0  0  0  0  0  0  0  0  0  0
   -5.9620    3.8220  -22.1010 C   0  0  0  0  0  0  0  0  0  0  0  0
   -7.9560    2.2830  -25.0660 C   0  0  0  0  0  0  0  0  0  0  0  0
   -8.0160   -3.0480  -24.4210 C   0  0  0  0  0  0  0  0  0  0  0  0
   -6.9040   -2.2590  -22.1970 C   0  0  0  0  0  0  0  0  0  0  0  0
   -8.2590   -0.1000  -24.3030 C   0  0  0  0  0  0  0  0  0  0  0  0
   -8.1980   -2.3900  -23.0340 C   0  0  0  0  0  0  0  0  0  0  0  0
   -8.8050   -0.9220  -23.0910 C   0  0  0  0  0  0  0  0  0  0  0  0
   -7.6760   -1.4480  -18.8170 H   0  0  0  0  0  0  0  0  0  0  0  0
   -8.2120   -6.5240  -29.1880 H   0  0  0  0  0  0  0  0  0  0  0  0
   -5.9820   -5.6490  -28.5160 H   0  0  0  0  0  0  0  0  0  0  0  0
  -10.1190   -6.4180  -27.5890 H   0  0  0  0  0  0  0  0  0  0  0  0
  -14.2990   -0.5310  -23.1240 H   0  0  0  0  0  0  0  0  0  0  0  0
  -12.9240    1.3070  -23.9940 H   0  0  0  0  0  0  0  0  0  0  0  0
   -5.6390   -4.7210  -26.2310 H   0  0  0  0  0  0  0  0  0  0  0  0
   -9.7790   -5.5020  -25.3010 H   0  0  0  0  0  0  0  0  0  0  0  0
  -10.7970   -2.7060  -22.0030 H   0  0  0  0  0  0  0  0  0  0  0  0
   -1.7660    2.0220  -20.9050 H   0  0  0  0  0  0  0  0  0  0  0  0
   -3.0000    1.2200  -22.9070 H   0  0  0  0  0  0  0  0  0  0  0  0
   -4.5000    0.6370  -17.1870 H   0  0  0  0  0  0  0  0  0  0  0  0
   -2.7000    1.6300  -18.6430 H   0  0  0  0  0  0  0  0  0  0  0  0
   -5.1230   -0.0110  -22.6680 H   0  0  0  0  0  0  0  0  0  0  0  0
   -7.9460    3.4640  -22.8050 H   0  0  0  0  0  0  0  0  0  0  0  0
   -6.6160   -4.5080  -23.9380 H   0  0  0  0  0  0  0  0  0  0  0  0
   -4.9830    3.9160  -22.5860 H   0  0  0  0  0  0  0  0  0  0  0  0
   -5.8670    3.1300  -21.2570 H   0  0  0  0  0  0  0  0  0  0  0  0
   -6.2880    4.8080  -21.7360 H   0  0  0  0  0  0  0  0  0  0  0  0
   -7.6120    1.9190  -26.0450 H   0  0  0  0  0  0  0  0  0  0  0  0
   -8.5150    3.2130  -25.2260 H   0  0  0  0  0  0  0  0  0  0  0  0
   -9.0010   -3.0350  -24.9050 H   0  0  0  0  0  0  0  0  0  0  0  0
   -7.3070   -2.4490  -25.0100 H   0  0  0  0  0  0  0  0  0  0  0  0
   -6.0250   -2.1310  -22.8410 H   0  0  0  0  0  0  0  0  0  0  0  0
   -6.7460   -3.1300  -21.5520 H   0  0  0  0  0  0  0  0  0  0  0  0
   -7.1690   -0.0180  -24.2000 H   0  0  0  0  0  0  0  0  0  0  0  0
   -8.4850   -0.6190  -25.2420 H   0  0  0  0  0  0  0  0  0  0  0  0
   -8.8550   -3.0390  -22.4460 H   0  0  0  0  0  0  0  0  0  0  0  0
  6  2  2  0
  7  3  2  0
  8  4  2  0
  9  5  2  0
 11 10  2  0
 12 10  1  0
 14 13  1  0
 15 11  1  0
 16 12  2  0
 19 18  1  0
 20  1  1  0
 20 13  2  0
 20 17  1  0
 21  6  1  0
 21 14  2  0
 22 15  2  0
 22 16  1  0
 23 17  2  0
 23 21  1  0
 24  5  1  0
 25 18  2  0
 26 19  2  0
 27  9  1  0
 28 24  2  0
 28 25  1  0
 29 26  1  0
 29 27  2  0
 29 28  1  0
 30  7  1  0
 31 22  1  0
 32  8  1  0
 32 27  1  0
 33  6  1  0
 34 30  1  0
 35  7  1  0
 35 33  1  0
 36 31  1  0
 37 32  1  0
 38 33  1  0
 39 36  1  0
 39 37  1  0
 40  8  1  0
 40 23  1  0
 40 38  1  0
 40 39  1  0
  9 41  1  0
 10 42  1  0
 11 43  1  0
 12 44  1  0
 13 45  1  0
 14 46  1  0
 15 47  1  0
 16 48  1  0
 17 49  1  0
 18 50  1  0
 19 51  1  0
 24 52  1  0
 25 53  1  0
 26 54  1  0
 30 55  1  0
 31 56  1  0
 34 57  1  0
 34 58  1  0
 34 59  1  0
 35 60  1  0
 35 61  1  0
 36 62  1  0
 36 63  1  0
 37 64  1  0
 37 65  1  0
 38 66  1  0
 38 67  1  0
 39 68  1  0
M  END
>  <Favorite_cresset>
false

>  <Protein_cresset>
sars_P

>  <MW_cresset>
554.0

>  <#Atoms_cresset>
40

>  <SlogP_cresset>
4.1

>  <TPSA_cresset>
94.6

>  <Flexibility_cresset>
5.1

>  <HBA_cresset>
8

>  <HBD_cresset>
2

>  <Rof5_cresset>
1

>  <Confs_cresset>
0

>  <Poses_cresset>
0

$$$$
predicted (24)
  xed2sdf           3D
 
 64 69  0  0  1  0  0  0  0  0999 V2000
  -13.5200   -2.9500  -21.7170 Cl  0  0  0  0  0  0  0  0  0  0  0  0
   -5.3390    1.9070  -25.1820 O   0  0  0  0  0  0  0  0  0  0  0  0
   -8.6830    0.5270  -21.5530 O   0  0  0  0  0  0  0  0  0  0  0  0
   -6.3040   -0.4730  -17.9810 N   0  0  0  0  0  0  0  0  0  0  0  0
   -6.4480    2.1080  -24.7110 C   0  0  0  0  0  0  0  0  0  0  0  0
   -8.2400   -0.5100  -22.0260 C   0  0  0  0  0  0  0  0  0  0  0  0
   -6.9360   -0.9780  -19.0560 C   0  0  0  0  0  0  0  0  0  0  0  0
  -13.0810   -0.7630  -23.2310 C   0  0  0  0  0  0  0  0  0  0  0  0
  -12.2760    0.1900  -23.8530 C   0  0  0  0  0  0  0  0  0  0  0  0
  -11.0920   -1.9920  -22.5810 C   0  0  0  0  0  0  0  0  0  0  0  0
   -2.8630    1.3570  -20.8380 C   0  0  0  0  0  0  0  0  0  0  0  0
   -3.5160    0.8480  -21.9720 C   0  0  0  0  0  0  0  0  0  0  0  0
  -12.4900   -1.8450  -22.5830 C   0  0  0  0  0  0  0  0  0  0  0  0
  -10.8800    0.0170  -23.9570 C   0  0  0  0  0  0  0  0  0  0  0  0
  -10.2770   -1.1000  -23.3220 C   0  0  0  0  0  0  0  0  0  0  0  0
   -5.1600    0.2100  -18.1610 C   0  0  0  0  0  0  0  0  0  0  0  0
   -3.4110    1.1550  -19.5650 C   0  0  0  0  0  0  0  0  0  0  0  0
   -4.7180    0.1330  -21.8440 C   0  0  0  0  0  0  0  0  0  0  0  0
   -6.4590   -0.8040  -20.3610 C   0  0  0  0  0  0  0  0  0  0  0  0
   -4.5970    0.4220  -19.4280 C   0  0  0  0  0  0  0  0  0  0  0  0
   -5.2580   -0.0930  -20.5610 C   0  0  0  0  0  0  0  0  0  0  0  0
   -7.2430   -1.2480  -21.4440 N   0  0  0  0  0  0  0  0  0  0  0  0
   -6.6670    2.6630  -23.4670 N   0  0  0  0  0  0  0  0  0  0  0  0
   -7.0540   -2.5520  -22.0700 C   0  0  0  0  0  0  0  0  0  0  0  0
   -8.1050   -2.6290  -23.2030 C   0  0  0  0  0  0  0  0  0  0  0  0
   -5.6870    3.4290  -22.7100 C   0  0  0  0  0  0  0  0  0  0  0  0
   -7.3870    5.4150  -22.4650 C   0  0  0  0  0  0  0  0  0  0  0  0
   -5.3460    6.0390  -22.4640 C   0  0  0  0  0  0  0  0  0  0  0  0
   -7.7480    1.7630  -25.4290 C   0  0  0  0  0  0  0  0  0  0  0  0
  -10.0450    1.0380  -24.7550 C   0  0  0  0  0  0  0  0  0  0  0  0
   -8.1170   -0.4750  -24.5090 C   0  0  0  0  0  0  0  0  0  0  0  0
   -6.6930    6.7940  -22.3720 C   0  0  0  0  0  0  0  0  0  0  0  0
   -8.7400   -1.2000  -23.2990 C   0  0  0  0  0  0  0  0  0  0  0  0
   -6.0930    4.8540  -23.1480 C   0  0  0  0  0  0  0  0  0  0  0  0
   -8.5900    0.9120  -24.5640 N   0  0  0  0  0  0  0  0  0  0  0  0
   -6.9480    7.6730  -23.3780 F   0  0  0  0  0  0  0  0  0  0  0  0
   -7.8650   -1.5190  -18.8760 H   0  0  0  0  0  0  0  0  0  0  0  0
  -14.1600   -0.6310  -23.2100 H   0  0  0  0  0  0  0  0  0  0  0  0
  -12.7680    1.0770  -24.2330 H   0  0  0  0  0  0  0  0  0  0  0  0
  -10.6540   -2.8000  -22.0030 H   0  0  0  0  0  0  0  0  0  0  0  0
   -1.9410    1.9220  -20.9470 H   0  0  0  0  0  0  0  0  0  0  0  0
   -3.0980    1.0270  -22.9570 H   0  0  0  0  0  0  0  0  0  0  0  0
   -4.6950    0.6140  -17.2650 H   0  0  0  0  0  0  0  0  0  0  0  0
   -2.9230    1.5710  -18.6900 H   0  0  0  0  0  0  0  0  0  0  0  0
   -5.2200   -0.2310  -22.7380 H   0  0  0  0  0  0  0  0  0  0  0  0
   -7.6340    2.7340  -23.1740 H   0  0  0  0  0  0  0  0  0  0  0  0
   -6.0370   -2.6160  -22.4780 H   0  0  0  0  0  0  0  0  0  0  0  0
   -7.2020   -3.3550  -21.3370 H   0  0  0  0  0  0  0  0  0  0  0  0
   -7.6160   -2.9140  -24.1440 H   0  0  0  0  0  0  0  0  0  0  0  0
   -8.8420   -3.4080  -22.9820 H   0  0  0  0  0  0  0  0  0  0  0  0
   -4.6640    3.1620  -22.9870 H   0  0  0  0  0  0  0  0  0  0  0  0
   -5.8470    3.3020  -21.6320 H   0  0  0  0  0  0  0  0  0  0  0  0
   -8.2900    5.4170  -23.0710 H   0  0  0  0  0  0  0  0  0  0  0  0
   -7.6160    4.9640  -21.4930 H   0  0  0  0  0  0  0  0  0  0  0  0
   -4.9190    5.7860  -21.4990 H   0  0  0  0  0  0  0  0  0  0  0  0
   -4.5850    6.5480  -23.0550 H   0  0  0  0  0  0  0  0  0  0  0  0
   -7.5280    1.2670  -26.3840 H   0  0  0  0  0  0  0  0  0  0  0  0
   -8.2480    2.7160  -25.6260 H   0  0  0  0  0  0  0  0  0  0  0  0
  -10.3780    2.0570  -24.5220 H   0  0  0  0  0  0  0  0  0  0  0  0
  -10.2490    0.8900  -25.8090 H   0  0  0  0  0  0  0  0  0  0  0  0
   -7.0250   -0.4900  -24.3910 H   0  0  0  0  0  0  0  0  0  0  0  0
   -8.3750   -0.9980  -25.4410 H   0  0  0  0  0  0  0  0  0  0  0  0
   -6.8470    7.2820  -21.4070 H   0  0  0  0  0  0  0  0  0  0  0  0
   -6.0840    4.9290  -24.2460 H   0  0  0  0  0  0  0  0  0  0  0  0
  5  2  2  0
  6  3  2  0
  7  4  2  0
  9  8  2  0
 12 11  1  0
 13  1  1  0
 13  8  1  0
 13 10  2  0
 14  9  1  0
 15 10  1  0
 15 14  2  0
 16  4  1  0
 17 11  2  0
 18 12  2  0
 19  7  1  0
 20 16  2  0
 20 17  1  0
 21 18  1  0
 21 19  2  0
 21 20  1  0
 22  6  1  0
 22 19  1  0
 23  5  1  0
 24 22  1  0
 25 24  1  0
 26 23  1  0
 29  5  1  0
 30 14  1  0
 32 27  1  0
 32 28  1  0
 33  6  1  0
 33 15  1  0
 33 25  1  0
 33 31  1  0
 34 26  1  0
 34 27  1  0
 34 28  1  0
 35 29  1  0
 35 30  1  0
 35 31  1  0
 36 32  1  0
  7 37  1  0
  8 38  1  0
  9 39  1  0
 10 40  1  0
 11 41  1  0
 12 42  1  0
 16 43  1  0
 17 44  1  0
 18 45  1  0
 23 46  1  0
 24 47  1  0
 24 48  1  0
 25 49  1  0
 25 50  1  0
 26 51  1  0
 26 52  1  0
 27 53  1  0
 27 54  1  0
 28 55  1  0
 28 56  1  0
 29 57  1  0
 29 58  1  0
 30 59  1  0
 30 60  1  0
 31 61  1  0
 31 62  1  0
 32 63  1  0
 34 64  1  0
M  END
>  <Favorite_cresset>
false

>  <Protein_cresset>
sars_P

>  <MW_cresset>
507.0

>  <#Atoms_cresset>
36

>  <SlogP_cresset>
4.3

>  <TPSA_cresset>
65.5

>  <Flexibility_cresset>
5.0

>  <HBA_cresset>
6

>  <HBD_cresset>
1

>  <Rof5_cresset>
1

>  <Confs_cresset>
0

>  <Poses_cresset>
0

$$$$
predicted (25)
  xed2sdf           3D
 
 69 74  0  0  1  0  0  0  0  0999 V2000
  -12.8670   -2.5240  -21.9880 Cl  0  0  0  0  0  0  0  0  0  0  0  0
    0.8320   -0.9290  -24.7370 O   0  0  0  0  0  0  0  0  0  0  0  0
   -4.3030   -1.6400  -25.5780 O   0  0  0  0  0  0  0  0  0  0  0  0
   -8.0570    0.5850  -21.8660 O   0  0  0  0  0  0  0  0  0  0  0  0
   -5.9450   -0.1890  -17.8130 N   0  0  0  0  0  0  0  0  0  0  0  0
    3.8300   -2.6670  -25.0840 O   0  0  0  0  0  0  0  0  0  0  0  0
    1.6760   -1.5380  -25.3730 C   0  0  0  0  0  0  0  0  0  0  0  0
   -4.8120   -1.8160  -26.6740 C   0  0  0  0  0  0  0  0  0  0  0  0
   -7.5770   -0.5010  -22.1440 C   0  0  0  0  0  0  0  0  0  0  0  0
   -6.4890   -0.7920  -18.8870 C   0  0  0  0  0  0  0  0  0  0  0  0
  -11.3930   -3.5600  -23.9620 C   0  0  0  0  0  0  0  0  0  0  0  0
   -1.9570   -1.0970  -27.5270 C   0  0  0  0  0  0  0  0  0  0  0  0
   -1.9790   -3.5100  -27.8030 C   0  0  0  0  0  0  0  0  0  0  0  0
   -0.6020   -1.1430  -27.2000 C   0  0  0  0  0  0  0  0  0  0  0  0
   -0.6150   -3.5570  -27.4510 C   0  0  0  0  0  0  0  0  0  0  0  0
  -10.4100   -3.5150  -24.9450 C   0  0  0  0  0  0  0  0  0  0  0  0
  -10.3430   -1.7080  -22.7790 C   0  0  0  0  0  0  0  0  0  0  0  0
   -2.4920    1.6930  -20.6670 C   0  0  0  0  0  0  0  0  0  0  0  0
   -3.0100    0.9970  -21.7680 C   0  0  0  0  0  0  0  0  0  0  0  0
  -11.4260   -2.5960  -22.9530 C   0  0  0  0  0  0  0  0  0  0  0  0
   -2.6640   -2.2830  -27.7580 C   0  0  0  0  0  0  0  0  0  0  0  0
    0.0630   -2.3770  -27.0610 C   0  0  0  0  0  0  0  0  0  0  0  0
   -9.4190   -2.5290  -24.8940 C   0  0  0  0  0  0  0  0  0  0  0  0
   -9.2970   -1.7410  -23.7300 C   0  0  0  0  0  0  0  0  0  0  0  0
   -4.8770    0.6080  -18.0090 C   0  0  0  0  0  0  0  0  0  0  0  0
   -3.1110    1.5690  -19.4150 C   0  0  0  0  0  0  0  0  0  0  0  0
   -4.1690    0.2160  -21.6290 C   0  0  0  0  0  0  0  0  0  0  0  0
   -5.9980   -0.6240  -20.1920 C   0  0  0  0  0  0  0  0  0  0  0  0
   -4.2540    0.7650  -19.2610 C   0  0  0  0  0  0  0  0  0  0  0  0
   -4.8090    0.1130  -20.3760 C   0  0  0  0  0  0  0  0  0  0  0  0
   -4.0760   -2.2300  -27.7800 N   0  0  0  0  0  0  0  0  0  0  0  0
   -6.7010   -1.1800  -21.2920 N   0  0  0  0  0  0  0  0  0  0  0  0
    1.3530   -2.4090  -26.4300 N   0  0  0  0  0  0  0  0  0  0  0  0
    3.1650   -1.3890  -25.0310 C   0  0  0  0  0  0  0  0  0  0  0  0
    3.7510   -3.2590  -26.3940 C   0  0  0  0  0  0  0  0  0  0  0  0
    2.2670   -3.5420  -26.7340 C   0  0  0  0  0  0  0  0  0  0  0  0
   -6.3050   -1.5990  -26.9420 C   0  0  0  0  0  0  0  0  0  0  0  0
   -8.4650   -2.3600  -26.0810 C   0  0  0  0  0  0  0  0  0  0  0  0
   -7.2310   -0.6720  -24.7380 C   0  0  0  0  0  0  0  0  0  0  0  0
   -7.8730   -1.2550  -23.4560 C   0  0  0  0  0  0  0  0  0  0  0  0
   -7.1510   -1.7820  -25.7360 N   0  0  0  0  0  0  0  0  0  0  0  0
   -7.3650   -1.4110  -18.7020 H   0  0  0  0  0  0  0  0  0  0  0  0
  -12.1840   -4.2970  -24.0270 H   0  0  0  0  0  0  0  0  0  0  0  0
   -2.4820   -0.1440  -27.5110 H   0  0  0  0  0  0  0  0  0  0  0  0
   -2.5230   -4.4290  -28.0090 H   0  0  0  0  0  0  0  0  0  0  0  0
   -0.0950   -0.2130  -26.9670 H   0  0  0  0  0  0  0  0  0  0  0  0
   -0.1260   -4.5250  -27.4080 H   0  0  0  0  0  0  0  0  0  0  0  0
  -10.4320   -4.2420  -25.7490 H   0  0  0  0  0  0  0  0  0  0  0  0
  -10.3030   -1.0450  -21.9190 H   0  0  0  0  0  0  0  0  0  0  0  0
   -1.6100    2.3200  -20.7830 H   0  0  0  0  0  0  0  0  0  0  0  0
   -2.5190    1.0710  -22.7340 H   0  0  0  0  0  0  0  0  0  0  0  0
   -4.5420    1.1590  -17.1380 H   0  0  0  0  0  0  0  0  0  0  0  0
   -2.6970    2.0970  -18.5710 H   0  0  0  0  0  0  0  0  0  0  0  0
   -4.5560   -0.3150  -22.4930 H   0  0  0  0  0  0  0  0  0  0  0  0
   -4.5510   -2.4040  -28.6600 H   0  0  0  0  0  0  0  0  0  0  0  0
   -6.4110   -2.1120  -21.5620 H   0  0  0  0  0  0  0  0  0  0  0  0
    3.6120   -0.6870  -25.7450 H   0  0  0  0  0  0  0  0  0  0  0  0
    3.2430   -0.9590  -24.0240 H   0  0  0  0  0  0  0  0  0  0  0  0
    4.1820   -2.5830  -27.1440 H   0  0  0  0  0  0  0  0  0  0  0  0
    4.3170   -4.1980  -26.4130 H   0  0  0  0  0  0  0  0  0  0  0  0
    1.9430   -4.4130  -26.1490 H   0  0  0  0  0  0  0  0  0  0  0  0
    2.1890   -3.8020  -27.7980 H   0  0  0  0  0  0  0  0  0  0  0  0
   -6.4580   -0.6070  -27.3860 H   0  0  0  0  0  0  0  0  0  0  0  0
   -6.5860   -2.3470  -27.6990 H   0  0  0  0  0  0  0  0  0  0  0  0
   -8.9360   -1.7120  -26.8340 H   0  0  0  0  0  0  0  0  0  0  0  0
   -8.3340   -3.3460  -26.5460 H   0  0  0  0  0  0  0  0  0  0  0  0
   -6.2340   -0.2750  -24.5070 H   0  0  0  0  0  0  0  0  0  0  0  0
   -7.8600    0.1430  -25.1220 H   0  0  0  0  0  0  0  0  0  0  0  0
   -7.3280   -2.1990  -23.3130 H   0  0  0  0  0  0  0  0  0  0  0  0
  7  2  2  0
  8  3  2  0
  9  4  2  0
 10  5  2  0
 14 12  2  0
 15 13  1  0
 16 11  2  0
 19 18  1  0
 20  1  1  0
 20 11  1  0
 20 17  2  0
 21 12  1  0
 21 13  2  0
 22 14  1  0
 22 15  2  0
 23 16  1  0
 24 17  1  0
 24 23  2  0
 25  5  1  0
 26 18  2  0
 27 19  2  0
 28 10  1  0
 29 25  2  0
 29 26  1  0
 30 27  1  0
 30 28  2  0
 30 29  1  0
 31  8  1  0
 31 21  1  0
 32  9  1  0
 32 28  1  0
 33  7  1  0
 33 22  1  0
 34  6  1  0
 34  7  1  0
 35  6  1  0
 36 33  1  0
 36 35  1  0
 37  8  1  0
 38 23  1  0
 40  9  1  0
 40 24  1  0
 40 39  1  0
 41 37  1  0
 41 38  1  0
 41 39  1  0
 10 42  1  0
 11 43  1  0
 12 44  1  0
 13 45  1  0
 14 46  1  0
 15 47  1  0
 16 48  1  0
 17 49  1  0
 18 50  1  0
 19 51  1  0
 25 52  1  0
 26 53  1  0
 27 54  1  0
 31 55  1  0
 32 56  1  0
 34 57  1  0
 34 58  1  0
 35 59  1  0
 35 60  1  0
 36 61  1  0
 36 62  1  0
 37 63  1  0
 37 64  1  0
 38 65  1  0
 38 66  1  0
 39 67  1  0
 39 68  1  0
 40 69  1  0
M  END
>  <Favorite_cresset>
false

>  <Protein_cresset>
sars_P

>  <MW_cresset>
570.0

>  <#Atoms_cresset>
41

>  <SlogP_cresset>
4.5

>  <TPSA_cresset>
103.9

>  <Flexibility_cresset>
4.9

>  <HBA_cresset>
9

>  <HBD_cresset>
2

>  <Rof5_cresset>
1

>  <Confs_cresset>
0

>  <Poses_cresset>
0

$$$$
predicted (26)
  xed2sdf           3D
 
 54 59  0  0  1  0  0  0  0  0999 V2000
  -10.7050    2.3261  -24.4030 O   0  0  0  0  0  0  0  0  0  0  0  0
   -8.6100    0.6350  -21.4800 O   0  0  0  0  0  0  0  0  0  0  0  0
   -6.1540   -0.4861  -17.9680 N   0  0  0  0  0  0  0  0  0  0  0  0
   -6.4310    3.7700  -22.3649 N   0  0  0  0  0  0  0  0  0  0  0  0
   -5.8731    2.8179  -24.2610 N   0  0  0  0  0  0  0  0  0  0  0  0
  -10.1831    1.2061  -24.2300 C   0  0  0  0  0  0  0  0  0  0  0  0
   -8.2060   -0.4110  -21.9369 C   0  0  0  0  0  0  0  0  0  0  0  0
   -7.5430    3.3419  -23.0130 C   0  0  0  0  0  0  0  0  0  0  0  0
   -6.8380   -0.9310  -19.0040 C   0  0  0  0  0  0  0  0  0  0  0  0
   -7.1670    2.7420  -24.1640 C   0  0  0  0  0  0  0  0  0  0  0  0
  -13.0369   -0.8370  -22.9530 C   0  0  0  0  0  0  0  0  0  0  0  0
  -12.3230    0.1880  -23.5140 C   0  0  0  0  0  0  0  0  0  0  0  0
  -10.9791   -2.0560  -22.5020 C   0  0  0  0  0  0  0  0  0  0  0  0
   -2.8510    1.4020  -20.9260 C   0  0  0  0  0  0  0  0  0  0  0  0
   -3.5260    0.9279  -22.0280 C   0  0  0  0  0  0  0  0  0  0  0  0
  -12.3760   -1.9630  -22.4420 C   0  0  0  0  0  0  0  0  0  0  0  0
  -10.9360    0.1040  -23.6030 C   0  0  0  0  0  0  0  0  0  0  0  0
  -10.2570   -1.0520  -23.1550 C   0  0  0  0  0  0  0  0  0  0  0  0
   -4.9970    0.1810  -18.1490 C   0  0  0  0  0  0  0  0  0  0  0  0
   -3.3280    1.1490  -19.6420 C   0  0  0  0  0  0  0  0  0  0  0  0
   -4.6899    0.2410  -21.8601 C   0  0  0  0  0  0  0  0  0  0  0  0
   -6.4170   -0.7060  -20.3279 C   0  0  0  0  0  0  0  0  0  0  0  0
   -4.5000    0.4500  -19.4480 C   0  0  0  0  0  0  0  0  0  0  0  0
   -5.2020   -0.0040  -20.5749 C   0  0  0  0  0  0  0  0  0  0  0  0
   -7.1870   -1.1280  -21.4000 N   0  0  0  0  0  0  0  0  0  0  0  0
   -8.8380    1.0100  -24.5320 N   0  0  0  0  0  0  0  0  0  0  0  0
   -5.4220    3.4410  -23.1340 N   0  0  0  0  0  0  0  0  0  0  0  0
   -8.0840    2.0590  -25.1830 C   0  0  0  0  0  0  0  0  0  0  0  0
   -8.1700   -3.2990  -24.2410 C   0  0  0  0  0  0  0  0  0  0  0  0
   -7.0409   -2.3970  -22.0620 C   0  0  0  0  0  0  0  0  0  0  0  0
   -8.2210   -0.3130  -24.4349 C   0  0  0  0  0  0  0  0  0  0  0  0
   -8.1531   -2.4589  -23.0530 C   0  0  0  0  0  0  0  0  0  0  0  0
   -8.7500   -1.0789  -23.1841 C   0  0  0  0  0  0  0  0  0  0  0  0
  -13.0949   -2.9350  -21.8951 F   0  0  0  0  0  0  0  0  0  0  0  0
   -8.5591    3.4608  -22.6669 H   0  0  0  0  0  0  0  0  0  0  0  0
   -7.7490   -1.4849  -18.8312 H   0  0  0  0  0  0  0  0  0  0  0  0
  -14.1142   -0.7778  -22.9040 H   0  0  0  0  0  0  0  0  0  0  0  0
  -12.8360    1.0619  -23.8876 H   0  0  0  0  0  0  0  0  0  0  0  0
  -10.4666   -2.8922  -22.0497 H   0  0  0  0  0  0  0  0  0  0  0  0
   -1.9447    1.9744  -21.0578 H   0  0  0  0  0  0  0  0  0  0  0  0
   -3.1349    1.0998  -23.0199 H   0  0  0  0  0  0  0  0  0  0  0  0
   -4.4384    0.5167  -17.2878 H   0  0  0  0  0  0  0  0  0  0  0  0
   -2.7723    1.5052  -18.7872 H   0  0  0  0  0  0  0  0  0  0  0  0
   -5.2259   -0.1199  -22.7255 H   0  0  0  0  0  0  0  0  0  0  0  0
   -8.7656    2.7871  -25.5976 H   0  0  0  0  0  0  0  0  0  0  0  0
   -7.4864    1.6332  -25.9754 H   0  0  0  0  0  0  0  0  0  0  0  0
   -9.1923   -3.5000  -24.5253 H   0  0  0  0  0  0  0  0  0  0  0  0
   -7.6651   -2.7903  -25.0489 H   0  0  0  0  0  0  0  0  0  0  0  0
   -7.6651   -4.2303  -24.0306 H   0  0  0  0  0  0  0  0  0  0  0  0
   -6.0857   -2.4540  -22.5626 H   0  0  0  0  0  0  0  0  0  0  0  0
   -7.1235   -3.2056  -21.3508 H   0  0  0  0  0  0  0  0  0  0  0  0
   -7.1500   -0.1993  -24.3541 H   0  0  0  0  0  0  0  0  0  0  0  0
   -8.4569   -0.8799  -25.3234 H   0  0  0  0  0  0  0  0  0  0  0  0
   -8.9143   -2.9447  -22.4606 H   0  0  0  0  0  0  0  0  0  0  0  0
  6  1  2  0
  7  2  2  0
  8  4  2  0
  9  3  2  0
 10  5  2  0
 10  8  1  0
 12 11  1  0
 15 14  1  0
 16 11  2  0
 16 13  1  0
 17  6  1  0
 17 12  2  0
 18 13  2  0
 18 17  1  0
 19  3  1  0
 20 14  2  0
 21 15  2  0
 22  9  1  0
 23 19  2  0
 23 20  1  0
 24 21  1  0
 24 22  2  0
 24 23  1  0
 25  7  1  0
 25 22  1  0
 26  6  1  0
 27  4  1  0
 27  5  1  0
 28 10  1  0
 28 26  1  0
 30 25  1  0
 31 26  1  0
 32 29  1  0
 32 30  1  0
 33  7  1  0
 33 18  1  0
 33 31  1  0
 33 32  1  0
 34 16  1  0
  8 35  1  0
  9 36  1  0
 11 37  1  0
 12 38  1  0
 13 39  1  0
 14 40  1  0
 15 41  1  0
 19 42  1  0
 20 43  1  0
 21 44  1  0
 28 45  1  0
 28 46  1  0
 29 47  1  0
 29 48  1  0
 29 49  1  0
 30 50  1  0
 30 51  1  0
 31 52  1  0
 31 53  1  0
 32 54  1  0
M  END
>  <Favorite_cresset>
false

>  <Protein_cresset>
sars_P

>  <MW_cresset>
455.5

>  <#Atoms_cresset>
34

>  <SlogP_cresset>
3.8

>  <TPSA_cresset>
90.6

>  <Flexibility_cresset>
2.9

>  <HBA_cresset>
8

>  <HBD_cresset>
0

>  <Rof5_cresset>
0

>  <Tags_cresset>
Minimize unsuccessful

>  <Confs_cresset>
0

>  <Poses_cresset>
0

$$$$
predicted (27)
  xed2sdf           3D
 
 57 61  0  0  1  0  0  0  0  0999 V2000
  -11.1220    2.4610  -24.2300 O   0  0  0  0  0  0  0  0  0  0  0  0
   -8.8400    0.6720  -21.4580 O   0  0  0  0  0  0  0  0  0  0  0  0
   -6.2330   -0.5980  -18.0290 N   0  0  0  0  0  0  0  0  0  0  0  0
  -10.5810    1.3680  -24.1380 C   0  0  0  0  0  0  0  0  0  0  0  0
   -8.4600   -0.3660  -21.9580 C   0  0  0  0  0  0  0  0  0  0  0  0
   -6.9420   -1.0080  -19.0960 C   0  0  0  0  0  0  0  0  0  0  0  0
  -13.4510   -0.8740  -22.9960 C   0  0  0  0  0  0  0  0  0  0  0  0
  -12.7220    0.2110  -23.4940 C   0  0  0  0  0  0  0  0  0  0  0  0
  -11.3780   -2.0550  -22.5710 C   0  0  0  0  0  0  0  0  0  0  0  0
   -3.0860    1.5930  -20.9740 C   0  0  0  0  0  0  0  0  0  0  0  0
   -3.8190    1.1690  -22.0930 C   0  0  0  0  0  0  0  0  0  0  0  0
  -12.7770   -2.0040  -22.5390 C   0  0  0  0  0  0  0  0  0  0  0  0
  -11.3150    0.1620  -23.5850 C   0  0  0  0  0  0  0  0  0  0  0  0
  -10.6190   -0.9880  -23.1220 C   0  0  0  0  0  0  0  0  0  0  0  0
   -5.1200    0.1270  -18.2300 C   0  0  0  0  0  0  0  0  0  0  0  0
   -3.5100    1.2490  -19.6810 C   0  0  0  0  0  0  0  0  0  0  0  0
   -4.9770    0.4030  -21.9230 C   0  0  0  0  0  0  0  0  0  0  0  0
   -6.5660   -0.7030  -20.4150 C   0  0  0  0  0  0  0  0  0  0  0  0
   -4.6630    0.4750  -19.5100 C   0  0  0  0  0  0  0  0  0  0  0  0
   -5.4000    0.0520  -20.6290 C   0  0  0  0  0  0  0  0  0  0  0  0
   -7.3890   -1.0910  -21.4950 N   0  0  0  0  0  0  0  0  0  0  0  0
   -9.2480    1.1830  -24.4940 N   0  0  0  0  0  0  0  0  0  0  0  0
   -8.3990    2.3380  -24.8850 C   0  0  0  0  0  0  0  0  0  0  0  0
   -8.2900   -3.2120  -24.5010 C   0  0  0  0  0  0  0  0  0  0  0  0
   -7.1610   -2.3160  -22.2470 C   0  0  0  0  0  0  0  0  0  0  0  0
   -8.5790   -0.1390  -24.4230 C   0  0  0  0  0  0  0  0  0  0  0  0
   -6.2370    4.5760  -22.6950 C   0  0  0  0  0  0  0  0  0  0  0  0
   -7.8390    2.9870  -23.6110 C   0  0  0  0  0  0  0  0  0  0  0  0
   -8.4210   -2.4550  -23.1360 C   0  0  0  0  0  0  0  0  0  0  0  0
   -9.0690   -1.0110  -23.2000 C   0  0  0  0  0  0  0  0  0  0  0  0
   -6.8900    4.0590  -23.9080 N   0  0  0  0  0  0  0  0  0  0  0  0
  -13.4800   -3.0360  -22.0320 F   0  0  0  0  0  0  0  0  0  0  0  0
   -7.8420   -1.5860  -18.8830 H   0  0  0  0  0  0  0  0  0  0  0  0
  -14.5330   -0.8240  -22.9210 H   0  0  0  0  0  0  0  0  0  0  0  0
  -13.2490    1.1060  -23.8100 H   0  0  0  0  0  0  0  0  0  0  0  0
  -10.9240   -2.9400  -22.1490 H   0  0  0  0  0  0  0  0  0  0  0  0
   -2.1910    2.1930  -21.1060 H   0  0  0  0  0  0  0  0  0  0  0  0
   -3.5000    1.4370  -23.0960 H   0  0  0  0  0  0  0  0  0  0  0  0
   -4.5970    0.4580  -17.3380 H   0  0  0  0  0  0  0  0  0  0  0  0
   -2.9550    1.5910  -18.8160 H   0  0  0  0  0  0  0  0  0  0  0  0
   -5.5440    0.0880  -22.7920 H   0  0  0  0  0  0  0  0  0  0  0  0
   -8.9710    3.0850  -25.4620 H   0  0  0  0  0  0  0  0  0  0  0  0
   -7.5630    1.9960  -25.5140 H   0  0  0  0  0  0  0  0  0  0  0  0
   -7.2580   -3.3390  -24.8420 H   0  0  0  0  0  0  0  0  0  0  0  0
   -8.8380   -2.7290  -25.3150 H   0  0  0  0  0  0  0  0  0  0  0  0
   -8.7310   -4.2110  -24.4260 H   0  0  0  0  0  0  0  0  0  0  0  0
   -6.2260   -2.2400  -22.8060 H   0  0  0  0  0  0  0  0  0  0  0  0
   -7.0620   -3.1620  -21.5580 H   0  0  0  0  0  0  0  0  0  0  0  0
   -7.4950    0.0340  -24.3710 H   0  0  0  0  0  0  0  0  0  0  0  0
   -8.7610   -0.6470  -25.3760 H   0  0  0  0  0  0  0  0  0  0  0  0
   -5.1470    4.5400  -22.8060 H   0  0  0  0  0  0  0  0  0  0  0  0
   -6.5100    3.9690  -21.8230 H   0  0  0  0  0  0  0  0  0  0  0  0
   -6.5450    5.6110  -22.5010 H   0  0  0  0  0  0  0  0  0  0  0  0
   -8.6740    3.3750  -23.0140 H   0  0  0  0  0  0  0  0  0  0  0  0
   -7.3350    2.2130  -23.0210 H   0  0  0  0  0  0  0  0  0  0  0  0
   -9.0030   -3.1100  -22.4850 H   0  0  0  0  0  0  0  0  0  0  0  0
   -6.1820    3.6880  -24.5410 H   0  0  0  0  0  0  0  0  0  0  0  0
  4  1  2  0
  5  2  2  0
  6  3  2  0
  8  7  1  0
 11 10  1  0
 12  7  2  0
 12  9  1  0
 13  4  1  0
 13  8  2  0
 14  9  2  0
 14 13  1  0
 15  3  1  0
 16 10  2  0
 17 11  2  0
 18  6  1  0
 19 15  2  0
 19 16  1  0
 20 17  1  0
 20 18  2  0
 20 19  1  0
 21  5  1  0
 21 18  1  0
 22  4  1  0
 23 22  1  0
 25 21  1  0
 26 22  1  0
 28 23  1  0
 29 24  1  0
 29 25  1  0
 30  5  1  0
 30 14  1  0
 30 26  1  0
 30 29  1  0
 31 27  1  0
 31 28  1  0
 32 12  1  0
  6 33  1  0
  7 34  1  0
  8 35  1  0
  9 36  1  0
 10 37  1  0
 11 38  1  0
 15 39  1  0
 16 40  1  0
 17 41  1  0
 23 42  1  0
 23 43  1  0
 24 44  1  0
 24 45  1  0
 24 46  1  0
 25 47  1  0
 25 48  1  0
 26 49  1  0
 26 50  1  0
 27 51  1  0
 27 52  1  0
 27 53  1  0
 28 54  1  0
 28 55  1  0
 29 56  1  0
 31 57  1  0
M  END
>  <Favorite_cresset>
false

>  <Protein_cresset>
sars_P

>  <MW_cresset>
432.5

>  <#Atoms_cresset>
32

>  <SlogP_cresset>
3.2

>  <TPSA_cresset>
65.5

>  <Flexibility_cresset>
3.9

>  <HBA_cresset>
6

>  <HBD_cresset>
1

>  <Rof5_cresset>
0

>  <Confs_cresset>
0

>  <Poses_cresset>
0

$$$$
predicted (28)
  xed2sdf           3D
 
 64 68  0  0  1  0  0  0  0  0999 V2000
  -13.5010   -2.8700  -21.9640 Cl  0  0  0  0  0  0  0  0  0  0  0  0
  -10.2720    2.5500  -24.3630 O   0  0  0  0  0  0  0  0  0  0  0  0
   -5.1900    2.5440  -24.6670 O   0  0  0  0  0  0  0  0  0  0  0  0
   -8.3990    0.5050  -21.2850 O   0  0  0  0  0  0  0  0  0  0  0  0
   -7.1750   -5.5710  -22.9960 O   0  0  0  0  0  0  0  0  0  0  0  0
   -5.6610   -4.9230  -24.8820 O   0  0  0  0  0  0  0  0  0  0  0  0
   -5.9810   -0.5530  -17.9610 N   0  0  0  0  0  0  0  0  0  0  0  0
   -9.8090    1.4430  -24.1500 C   0  0  0  0  0  0  0  0  0  0  0  0
   -6.3290    2.5500  -24.2290 C   0  0  0  0  0  0  0  0  0  0  0  0
   -7.9780   -0.4780  -21.8620 C   0  0  0  0  0  0  0  0  0  0  0  0
   -6.5770   -1.0610  -19.0550 C   0  0  0  0  0  0  0  0  0  0  0  0
  -12.9500   -0.4920  -23.1450 C   0  0  0  0  0  0  0  0  0  0  0  0
  -12.0940    0.5040  -23.6190 C   0  0  0  0  0  0  0  0  0  0  0  0
  -11.0200   -1.8690  -22.5990 C   0  0  0  0  0  0  0  0  0  0  0  0
   -2.5170    1.3410  -20.7830 C   0  0  0  0  0  0  0  0  0  0  0  0
   -3.1450    0.8100  -21.9190 C   0  0  0  0  0  0  0  0  0  0  0  0
  -12.4100   -1.6650  -22.6210 C   0  0  0  0  0  0  0  0  0  0  0  0
  -10.6900    0.3170  -23.6280 C   0  0  0  0  0  0  0  0  0  0  0  0
  -10.1320   -0.8960  -23.1320 C   0  0  0  0  0  0  0  0  0  0  0  0
   -4.8590    0.1740  -18.1250 C   0  0  0  0  0  0  0  0  0  0  0  0
   -3.0950    1.1650  -19.5170 C   0  0  0  0  0  0  0  0  0  0  0  0
   -4.3430    0.0960  -21.7950 C   0  0  0  0  0  0  0  0  0  0  0  0
   -6.0830   -0.8570  -20.3500 C   0  0  0  0  0  0  0  0  0  0  0  0
   -4.2650    0.3960  -19.3790 C   0  0  0  0  0  0  0  0  0  0  0  0
   -4.8880   -0.1390  -20.5210 C   0  0  0  0  0  0  0  0  0  0  0  0
   -6.6350    2.9630  -22.9450 N   0  0  0  0  0  0  0  0  0  0  0  0
   -6.8790   -1.2020  -21.4600 N   0  0  0  0  0  0  0  0  0  0  0  0
   -8.4600    1.1430  -24.3860 N   0  0  0  0  0  0  0  0  0  0  0  0
   -7.9010   -5.9870  -25.3520 N   0  0  0  0  0  0  0  0  0  0  0  0
   -5.6940    3.5720  -21.9900 C   0  0  0  0  0  0  0  0  0  0  0  0
   -8.1650   -5.5820  -26.7440 C   0  0  0  0  0  0  0  0  0  0  0  0
   -7.5410    2.1120  -25.0780 C   0  0  0  0  0  0  0  0  0  0  0  0
   -6.6860   -2.4160  -22.2470 C   0  0  0  0  0  0  0  0  0  0  0  0
   -7.9600   -0.2480  -24.3070 C   0  0  0  0  0  0  0  0  0  0  0  0
   -7.8300   -3.3240  -24.4120 C   0  0  0  0  0  0  0  0  0  0  0  0
   -7.9970   -2.5580  -23.0550 C   0  0  0  0  0  0  0  0  0  0  0  0
   -8.5820   -1.0720  -23.1300 C   0  0  0  0  0  0  0  0  0  0  0  0
   -7.0030   -4.9980  -24.3190 S   0  0  0  0  0  0  0  0  0  0  0  0
   -7.5110   -1.6000  -18.8910 H   0  0  0  0  0  0  0  0  0  0  0  0
  -14.0290   -0.3530  -23.1630 H   0  0  0  0  0  0  0  0  0  0  0  0
  -12.5410    1.4210  -23.9870 H   0  0  0  0  0  0  0  0  0  0  0  0
  -10.6690   -2.7920  -22.1520 H   0  0  0  0  0  0  0  0  0  0  0  0
   -1.5920    1.9020  -20.8880 H   0  0  0  0  0  0  0  0  0  0  0  0
   -2.7110    0.9600  -22.9010 H   0  0  0  0  0  0  0  0  0  0  0  0
   -4.4480    0.6040  -17.2210 H   0  0  0  0  0  0  0  0  0  0  0  0
   -2.6350    1.6240  -18.6510 H   0  0  0  0  0  0  0  0  0  0  0  0
   -4.8330   -0.2730  -22.6910 H   0  0  0  0  0  0  0  0  0  0  0  0
   -7.6080    2.9330  -22.6830 H   0  0  0  0  0  0  0  0  0  0  0  0
   -8.7190   -6.4170  -24.9110 H   0  0  0  0  0  0  0  0  0  0  0  0
   -4.6740    3.5940  -22.3920 H   0  0  0  0  0  0  0  0  0  0  0  0
   -5.6930    2.9690  -21.0720 H   0  0  0  0  0  0  0  0  0  0  0  0
   -6.0220    4.6020  -21.7730 H   0  0  0  0  0  0  0  0  0  0  0  0
   -9.2470   -5.4720  -26.9020 H   0  0  0  0  0  0  0  0  0  0  0  0
   -7.7910   -6.3530  -27.4330 H   0  0  0  0  0  0  0  0  0  0  0  0
   -7.6690   -4.6260  -26.9730 H   0  0  0  0  0  0  0  0  0  0  0  0
   -7.1610    1.6720  -26.0110 H   0  0  0  0  0  0  0  0  0  0  0  0
   -8.0870    3.0310  -25.3200 H   0  0  0  0  0  0  0  0  0  0  0  0
   -5.8160   -2.2960  -22.9030 H   0  0  0  0  0  0  0  0  0  0  0  0
   -6.5210   -3.2910  -21.6100 H   0  0  0  0  0  0  0  0  0  0  0  0
   -6.8660   -0.2320  -24.1960 H   0  0  0  0  0  0  0  0  0  0  0  0
   -8.2000   -0.7220  -25.2660 H   0  0  0  0  0  0  0  0  0  0  0  0
   -8.8350   -3.4840  -24.8210 H   0  0  0  0  0  0  0  0  0  0  0  0
   -7.2420   -2.7340  -25.1320 H   0  0  0  0  0  0  0  0  0  0  0  0
   -8.6460   -3.1730  -22.4320 H   0  0  0  0  0  0  0  0  0  0  0  0
  8  2  2  0
  9  3  2  0
 10  4  2  0
 11  7  2  0
 13 12  1  0
 16 15  1  0
 17  1  1  0
 17 12  2  0
 17 14  1  0
 18  8  1  0
 18 13  2  0
 19 14  2  0
 19 18  1  0
 20  7  1  0
 21 15  2  0
 22 16  2  0
 23 11  1  0
 24 20  2  0
 24 21  1  0
 25 22  1  0
 25 23  2  0
 25 24  1  0
 26  9  1  0
 27 10  1  0
 27 23  1  0
 28  8  1  0
 30 26  1  0
 31 29  1  0
 32  9  1  0
 32 28  1  0
 33 27  1  0
 34 28  1  0
 36 33  1  0
 36 35  1  0
 37 10  1  0
 37 19  1  0
 37 34  1  0
 37 36  1  0
 38  5  2  0
 38  6  2  0
 38 29  1  0
 38 35  1  0
 11 39  1  0
 12 40  1  0
 13 41  1  0
 14 42  1  0
 15 43  1  0
 16 44  1  0
 20 45  1  0
 21 46  1  0
 22 47  1  0
 26 48  1  0
 29 49  1  0
 30 50  1  0
 30 51  1  0
 30 52  1  0
 31 53  1  0
 31 54  1  0
 31 55  1  0
 32 56  1  0
 32 57  1  0
 33 58  1  0
 33 59  1  0
 34 60  1  0
 34 61  1  0
 35 62  1  0
 35 63  1  0
 36 64  1  0
M  END
>  <Favorite_cresset>
false

>  <Protein_cresset>
sars_P

>  <MW_cresset>
556.0

>  <#Atoms_cresset>
38

>  <SlogP_cresset>
1.6

>  <TPSA_cresset>
128.8

>  <Flexibility_cresset>
5.4

>  <HBA_cresset>
10

>  <HBD_cresset>
2

>  <Rof5_cresset>
1

>  <Confs_cresset>
0

>  <Poses_cresset>
0

$$$$
predicted (29)
  xed2sdf           3D
 
 54 59  0  0  1  0  0  0  0  0999 V2000
  -10.6750    2.4201  -24.4090 O   0  0  0  0  0  0  0  0  0  0  0  0
   -8.6200    0.6430  -21.5080 O   0  0  0  0  0  0  0  0  0  0  0  0
   -6.1530   -0.5041  -18.0250 N   0  0  0  0  0  0  0  0  0  0  0  0
   -6.3240    3.6960  -22.3139 N   0  0  0  0  0  0  0  0  0  0  0  0
   -5.8301    2.8969  -24.2920 N   0  0  0  0  0  0  0  0  0  0  0  0
  -10.1721    1.2831  -24.2510 C   0  0  0  0  0  0  0  0  0  0  0  0
   -8.2280   -0.4080  -21.9749 C   0  0  0  0  0  0  0  0  0  0  0  0
   -7.4480    3.2739  -22.9380 C   0  0  0  0  0  0  0  0  0  0  0  0
   -6.8530   -0.9330  -19.0610 C   0  0  0  0  0  0  0  0  0  0  0  0
   -7.1120    2.7640  -24.1460 C   0  0  0  0  0  0  0  0  0  0  0  0
  -13.0729   -0.7270  -23.0090 C   0  0  0  0  0  0  0  0  0  0  0  0
  -12.3420    0.2950  -23.5570 C   0  0  0  0  0  0  0  0  0  0  0  0
  -11.0371   -1.9900  -22.5630 C   0  0  0  0  0  0  0  0  0  0  0  0
   -2.7900    1.2560  -20.9980 C   0  0  0  0  0  0  0  0  0  0  0  0
   -3.4750    0.7879  -22.0950 C   0  0  0  0  0  0  0  0  0  0  0  0
  -12.4320   -1.8730  -22.5070 C   0  0  0  0  0  0  0  0  0  0  0  0
  -10.9490    0.1830  -23.6390 C   0  0  0  0  0  0  0  0  0  0  0  0
  -10.2920   -0.9940  -23.2090 C   0  0  0  0  0  0  0  0  0  0  0  0
   -4.9800    0.1280  -18.2140 C   0  0  0  0  0  0  0  0  0  0  0  0
   -3.2770    1.0370  -19.7150 C   0  0  0  0  0  0  0  0  0  0  0  0
   -4.6609    0.1390  -21.9291 C   0  0  0  0  0  0  0  0  0  0  0  0
   -6.4240   -0.7390  -20.3879 C   0  0  0  0  0  0  0  0  0  0  0  0
   -4.4720    0.3720  -19.5150 C   0  0  0  0  0  0  0  0  0  0  0  0
   -5.1870   -0.0740  -20.6369 C   0  0  0  0  0  0  0  0  0  0  0  0
   -7.2100   -1.1410  -21.4570 N   0  0  0  0  0  0  0  0  0  0  0  0
   -8.8300    1.0720  -24.5460 N   0  0  0  0  0  0  0  0  0  0  0  0
   -5.3460    3.4620  -23.1430 N   0  0  0  0  0  0  0  0  0  0  0  0
   -8.0590    2.1230  -25.1770 C   0  0  0  0  0  0  0  0  0  0  0  0
   -8.2080   -3.2720  -24.3160 C   0  0  0  0  0  0  0  0  0  0  0  0
   -7.0779   -2.3990  -22.1460 C   0  0  0  0  0  0  0  0  0  0  0  0
   -8.2330   -0.2730  -24.4709 C   0  0  0  0  0  0  0  0  0  0  0  0
   -8.2191   -2.4389  -23.1130 C   0  0  0  0  0  0  0  0  0  0  0  0
   -8.7840   -1.0509  -23.2281 C   0  0  0  0  0  0  0  0  0  0  0  0
  -13.1659   -2.8410  -21.9731 F   0  0  0  0  0  0  0  0  0  0  0  0
   -8.4493    3.3342  -22.5377 H   0  0  0  0  0  0  0  0  0  0  0  0
   -7.7849   -1.4494  -18.8838 H   0  0  0  0  0  0  0  0  0  0  0  0
  -14.1492   -0.6512  -22.9627 H   0  0  0  0  0  0  0  0  0  0  0  0
  -12.8381    1.1816  -23.9234 H   0  0  0  0  0  0  0  0  0  0  0  0
  -10.5415   -2.8378  -22.1135 H   0  0  0  0  0  0  0  0  0  0  0  0
   -1.8660    1.7982  -21.1347 H   0  0  0  0  0  0  0  0  0  0  0  0
   -3.0731    0.9348  -23.0866 H   0  0  0  0  0  0  0  0  0  0  0  0
   -4.4130    0.4568  -17.3556 H   0  0  0  0  0  0  0  0  0  0  0  0
   -2.7147    1.3908  -18.8635 H   0  0  0  0  0  0  0  0  0  0  0  0
   -5.2031   -0.2155  -22.7933 H   0  0  0  0  0  0  0  0  0  0  0  0
   -8.7291    2.8758  -25.5653 H   0  0  0  0  0  0  0  0  0  0  0  0
   -7.4786    1.7056  -25.9865 H   0  0  0  0  0  0  0  0  0  0  0  0
   -7.1870   -3.4726  -24.6057 H   0  0  0  0  0  0  0  0  0  0  0  0
   -8.7143   -2.7542  -25.1172 H   0  0  0  0  0  0  0  0  0  0  0  0
   -8.7144   -4.2041  -24.1131 H   0  0  0  0  0  0  0  0  0  0  0  0
   -6.1352   -2.4462  -22.6708 H   0  0  0  0  0  0  0  0  0  0  0  0
   -7.1435   -3.2213  -21.4489 H   0  0  0  0  0  0  0  0  0  0  0  0
   -7.1603   -0.1811  -24.3855 H   0  0  0  0  0  0  0  0  0  0  0  0
   -8.4770   -0.8204  -25.3694 H   0  0  0  0  0  0  0  0  0  0  0  0
   -8.9794   -2.9290  -22.5231 H   0  0  0  0  0  0  0  0  0  0  0  0
  6  1  2  0
  7  2  2  0
  8  4  2  0
  9  3  2  0
 10  5  2  0
 10  8  1  0
 12 11  1  0
 15 14  1  0
 16 11  2  0
 16 13  1  0
 17  6  1  0
 17 12  2  0
 18 13  2  0
 18 17  1  0
 19  3  1  0
 20 14  2  0
 21 15  2  0
 22  9  1  0
 23 19  2  0
 23 20  1  0
 24 21  1  0
 24 22  2  0
 24 23  1  0
 25  7  1  0
 25 22  1  0
 26  6  1  0
 27  4  1  0
 27  5  1  0
 28 10  1  0
 28 26  1  0
 30 25  1  0
 31 26  1  0
 32 29  1  0
 32 30  1  0
 33  7  1  0
 33 18  1  0
 33 31  1  0
 33 32  1  0
 34 16  1  0
  8 35  1  0
  9 36  1  0
 11 37  1  0
 12 38  1  0
 13 39  1  0
 14 40  1  0
 15 41  1  0
 19 42  1  0
 20 43  1  0
 21 44  1  0
 28 45  1  0
 28 46  1  0
 29 47  1  0
 29 48  1  0
 29 49  1  0
 30 50  1  0
 30 51  1  0
 31 52  1  0
 31 53  1  0
 32 54  1  0
M  END
>  <Favorite_cresset>
false

>  <Protein_cresset>
sars_P

>  <MW_cresset>
455.5

>  <#Atoms_cresset>
34

>  <SlogP_cresset>
3.8

>  <TPSA_cresset>
90.6

>  <Flexibility_cresset>
2.9

>  <HBA_cresset>
8

>  <HBD_cresset>
0

>  <Rof5_cresset>
0

>  <Tags_cresset>
Minimize unsuccessful

>  <Confs_cresset>
0

>  <Poses_cresset>
0

$$$$
predicted (30)
  xed2sdf           3D
 
 57 62  0  0  1  0  0  0  0  0999 V2000
  -10.5820    2.3430  -24.5140 O   0  0  0  0  0  0  0  0  0  0  0  0
   -8.5780    0.6000  -21.5400 O   0  0  0  0  0  0  0  0  0  0  0  0
   -3.8930    4.2079  -23.5550 O   0  0  0  0  0  0  0  0  0  0  0  0
   -6.1180   -0.5410  -18.0449 N   0  0  0  0  0  0  0  0  0  0  0  0
   -7.6230    3.0179  -22.9240 N   0  0  0  0  0  0  0  0  0  0  0  0
  -10.0840    1.2190  -24.3190 C   0  0  0  0  0  0  0  0  0  0  0  0
   -8.1570   -0.4430  -22.0019 C   0  0  0  0  0  0  0  0  0  0  0  0
   -6.7970   -0.9701  -19.0910 C   0  0  0  0  0  0  0  0  0  0  0  0
   -7.1020    2.7930  -24.1600 C   0  0  0  0  0  0  0  0  0  0  0  0
  -12.9720   -0.8110  -23.0890 C   0  0  0  0  0  0  0  0  0  0  0  0
  -12.2480    0.2180  -23.6211 C   0  0  0  0  0  0  0  0  0  0  0  0
  -10.9431   -2.0620  -22.6320 C   0  0  0  0  0  0  0  0  0  0  0  0
   -2.7791    1.3770  -20.9590 C   0  0  0  0  0  0  0  0  0  0  0  0
   -3.4500    0.9160  -22.0690 C   0  0  0  0  0  0  0  0  0  0  0  0
  -12.3390   -1.9531  -22.5900 C   0  0  0  0  0  0  0  0  0  0  0  0
  -10.8610    0.1180  -23.7010 C   0  0  0  0  0  0  0  0  0  0  0  0
  -10.2040   -1.0550  -23.2600 C   0  0  0  0  0  0  0  0  0  0  0  0
   -5.8040    3.1780  -24.4440 C   0  0  0  0  0  0  0  0  0  0  0  0
   -4.9610    0.1290  -18.2110 C   0  0  0  0  0  0  0  0  0  0  0  0
   -3.2701    1.1120  -19.6849 C   0  0  0  0  0  0  0  0  0  0  0  0
   -4.6169    0.2250  -21.9120 C   0  0  0  0  0  0  0  0  0  0  0  0
   -6.3650   -0.7350  -20.4009 C   0  0  0  0  0  0  0  0  0  0  0  0
   -6.8891    3.6270  -22.0191 C   0  0  0  0  0  0  0  0  0  0  0  0
   -5.0641    3.8430  -23.3919 C   0  0  0  0  0  0  0  0  0  0  0  0
   -4.4570    0.4120  -19.4970 C   0  0  0  0  0  0  0  0  0  0  0  0
   -5.1500   -0.0310  -20.6340 C   0  0  0  0  0  0  0  0  0  0  0  0
   -7.1350   -1.1480  -21.4830 N   0  0  0  0  0  0  0  0  0  0  0  0
   -8.7280    1.0210  -24.5960 N   0  0  0  0  0  0  0  0  0  0  0  0
   -5.6209    4.0680  -22.2210 N   0  0  0  0  0  0  0  0  0  0  0  0
   -7.9650    2.0631  -25.2530 C   0  0  0  0  0  0  0  0  0  0  0  0
   -8.0670   -3.2840  -24.3740 C   0  0  0  0  0  0  0  0  0  0  0  0
   -6.9580   -2.4020  -22.1610 C   0  0  0  0  0  0  0  0  0  0  0  0
   -8.1350   -0.3129  -24.5040 C   0  0  0  0  0  0  0  0  0  0  0  0
   -8.1060   -2.4760  -23.1501 C   0  0  0  0  0  0  0  0  0  0  0  0
   -8.7009   -1.0919  -23.2690 C   0  0  0  0  0  0  0  0  0  0  0  0
  -13.0611   -2.9270  -22.0840 F   0  0  0  0  0  0  0  0  0  0  0  0
   -7.7134   -1.5189  -18.9317 H   0  0  0  0  0  0  0  0  0  0  0  0
  -14.0492   -0.7411  -23.0534 H   0  0  0  0  0  0  0  0  0  0  0  0
  -12.7490    1.1055  -23.9782 H   0  0  0  0  0  0  0  0  0  0  0  0
  -10.4455   -2.9106  -22.1863 H   0  0  0  0  0  0  0  0  0  0  0  0
   -1.8688    1.9461  -21.0777 H   0  0  0  0  0  0  0  0  0  0  0  0
   -3.0558    1.0997  -23.0576 H   0  0  0  0  0  0  0  0  0  0  0  0
   -5.3607    2.9903  -25.4107 H   0  0  0  0  0  0  0  0  0  0  0  0
   -4.4089    0.4557  -17.3422 H   0  0  0  0  0  0  0  0  0  0  0  0
   -2.7179    1.4571  -18.8234 H   0  0  0  0  0  0  0  0  0  0  0  0
   -5.1419   -0.1325  -22.7856 H   0  0  0  0  0  0  0  0  0  0  0  0
   -7.3264    3.7880  -21.0447 H   0  0  0  0  0  0  0  0  0  0  0  0
   -8.6351    2.7679  -25.7225 H   0  0  0  0  0  0  0  0  0  0  0  0
   -7.3184    1.6281  -26.0009 H   0  0  0  0  0  0  0  0  0  0  0  0
   -7.0395   -3.4673  -24.6517 H   0  0  0  0  0  0  0  0  0  0  0  0
   -8.5664   -2.7538  -25.1714 H   0  0  0  0  0  0  0  0  0  0  0  0
   -8.5663   -4.2256  -24.1997 H   0  0  0  0  0  0  0  0  0  0  0  0
   -6.0096   -2.4244  -22.6772 H   0  0  0  0  0  0  0  0  0  0  0  0
   -7.0062   -3.2227  -21.4607 H   0  0  0  0  0  0  0  0  0  0  0  0
   -7.0642   -0.2176  -24.4016 H   0  0  0  0  0  0  0  0  0  0  0  0
   -8.3629   -0.8640  -25.4045 H   0  0  0  0  0  0  0  0  0  0  0  0
   -8.8601   -2.9897  -22.5723 H   0  0  0  0  0  0  0  0  0  0  0  0
  6  1  2  0
  7  2  2  0
  8  4  2  0
  9  5  1  0
 11 10  1  0
 14 13  1  0
 15 10  2  0
 15 12  1  0
 16  6  1  0
 16 11  2  0
 17 12  2  0
 17 16  1  0
 18  9  2  0
 19  4  1  0
 20 13  2  0
 21 14  2  0
 22  8  1  0
 23  5  1  0
 24  3  2  0
 24 18  1  0
 25 19  2  0
 25 20  1  0
 26 21  1  0
 26 22  2  0
 26 25  1  0
 27  7  1  0
 27 22  1  0
 28  6  1  0
 29 23  2  0
 29 24  1  0
 30  9  1  0
 30 28  1  0
 32 27  1  0
 33 28  1  0
 34 31  1  0
 34 32  1  0
 35  7  1  0
 35 17  1  0
 35 33  1  0
 35 34  1  0
 36 15  1  0
  8 37  1  0
 10 38  1  0
 11 39  1  0
 12 40  1  0
 13 41  1  0
 14 42  1  0
 18 43  1  0
 19 44  1  0
 20 45  1  0
 21 46  1  0
 23 47  1  0
 30 48  1  0
 30 49  1  0
 31 50  1  0
 31 51  1  0
 31 52  1  0
 32 53  1  0
 32 54  1  0
 33 55  1  0
 33 56  1  0
 34 57  1  0
M  END
>  <Favorite_cresset>
false

>  <Protein_cresset>
sars_P

>  <MW_cresset>
482.5

>  <#Atoms_cresset>
36

>  <SlogP_cresset>
3.0

>  <TPSA_cresset>
95.3

>  <Flexibility_cresset>
2.9

>  <HBA_cresset>
8

>  <HBD_cresset>
0

>  <Rof5_cresset>
0

>  <Tags_cresset>
Minimize unsuccessful

>  <Confs_cresset>
0

>  <Poses_cresset>
0

$$$$
predicted (31)
  xed2sdf           3D
 
 66 71  0  0  1  0  0  0  0  0999 V2000
  -13.9030   -2.9440  -21.7500 Cl  0  0  0  0  0  0  0  0  0  0  0  0
  -10.9890    2.5630  -24.2880 O   0  0  0  0  0  0  0  0  0  0  0  0
   -5.8550    2.2340  -24.6600 O   0  0  0  0  0  0  0  0  0  0  0  0
   -8.6700    0.7800  -21.3550 O   0  0  0  0  0  0  0  0  0  0  0  0
   -7.3700   -5.8300  -28.3080 N   0  0  0  0  0  0  0  0  0  0  0  0
   -7.2870   -4.1300  -26.6290 N   0  0  0  0  0  0  0  0  0  0  0  0
   -6.1340   -0.6450  -17.9750 N   0  0  0  0  0  0  0  0  0  0  0  0
  -10.4720    1.4810  -24.0660 C   0  0  0  0  0  0  0  0  0  0  0  0
   -6.9540    2.5450  -24.2270 C   0  0  0  0  0  0  0  0  0  0  0  0
   -8.3880   -0.2990  -21.8320 C   0  0  0  0  0  0  0  0  0  0  0  0
   -7.1030   -4.5820  -27.8740 C   0  0  0  0  0  0  0  0  0  0  0  0
   -7.8360   -6.7030  -27.3870 C   0  0  0  0  0  0  0  0  0  0  0  0
   -6.8330   -1.0550  -19.0460 C   0  0  0  0  0  0  0  0  0  0  0  0
   -7.7650   -4.9980  -25.7050 C   0  0  0  0  0  0  0  0  0  0  0  0
   -8.0470   -6.3340  -26.0410 C   0  0  0  0  0  0  0  0  0  0  0  0
  -13.5030   -0.5930  -23.0490 C   0  0  0  0  0  0  0  0  0  0  0  0
  -12.6990    0.4340  -23.5470 C   0  0  0  0  0  0  0  0  0  0  0  0
  -11.5080   -1.8320  -22.4320 C   0  0  0  0  0  0  0  0  0  0  0  0
   -2.8480    1.3900  -20.8750 C   0  0  0  0  0  0  0  0  0  0  0  0
   -3.5570    0.9580  -22.0060 C   0  0  0  0  0  0  0  0  0  0  0  0
  -12.9030   -1.7120  -22.4760 C   0  0  0  0  0  0  0  0  0  0  0  0
  -11.2880    0.3320  -23.5160 C   0  0  0  0  0  0  0  0  0  0  0  0
  -10.6670   -0.8220  -22.9650 C   0  0  0  0  0  0  0  0  0  0  0  0
   -5.0150    0.0700  -18.1650 C   0  0  0  0  0  0  0  0  0  0  0  0
   -3.3340    1.1100  -19.5900 C   0  0  0  0  0  0  0  0  0  0  0  0
   -4.7580    0.2460  -21.8540 C   0  0  0  0  0  0  0  0  0  0  0  0
   -6.4520   -0.7540  -20.3570 C   0  0  0  0  0  0  0  0  0  0  0  0
   -4.5170    0.3690  -19.4390 C   0  0  0  0  0  0  0  0  0  0  0  0
   -5.2430   -0.0580  -20.5680 C   0  0  0  0  0  0  0  0  0  0  0  0
   -7.1230    3.2460  -23.0420 N   0  0  0  0  0  0  0  0  0  0  0  0
   -8.0450   -4.4660  -24.4420 N   0  0  0  0  0  0  0  0  0  0  0  0
   -7.3310   -1.0770  -21.4130 N   0  0  0  0  0  0  0  0  0  0  0  0
   -9.1220    1.2330  -24.3190 N   0  0  0  0  0  0  0  0  0  0  0  0
   -6.0270    3.6790  -22.1560 C   0  0  0  0  0  0  0  0  0  0  0  0
   -8.2570    2.2410  -24.9940 C   0  0  0  0  0  0  0  0  0  0  0  0
   -8.2720   -3.0060  -24.3540 C   0  0  0  0  0  0  0  0  0  0  0  0
   -7.1940   -2.2990  -22.1810 C   0  0  0  0  0  0  0  0  0  0  0  0
   -8.5790   -0.1420  -24.2450 C   0  0  0  0  0  0  0  0  0  0  0  0
   -8.5170   -2.4180  -22.9590 C   0  0  0  0  0  0  0  0  0  0  0  0
   -9.1070   -0.9440  -23.0110 C   0  0  0  0  0  0  0  0  0  0  0  0
   -6.7130   -3.8520  -28.5880 H   0  0  0  0  0  0  0  0  0  0  0  0
   -8.0650   -7.7000  -27.7520 H   0  0  0  0  0  0  0  0  0  0  0  0
   -7.7400   -1.6200  -18.8430 H   0  0  0  0  0  0  0  0  0  0  0  0
   -8.4320   -7.0440  -25.3090 H   0  0  0  0  0  0  0  0  0  0  0  0
  -14.5850   -0.5130  -23.0770 H   0  0  0  0  0  0  0  0  0  0  0  0
  -13.1890    1.3090  -23.9630 H   0  0  0  0  0  0  0  0  0  0  0  0
  -11.1130   -2.7200  -21.9630 H   0  0  0  0  0  0  0  0  0  0  0  0
   -1.9260    1.9520  -20.9920 H   0  0  0  0  0  0  0  0  0  0  0  0
   -3.1850    1.1930  -23.0000 H   0  0  0  0  0  0  0  0  0  0  0  0
   -4.5150    0.4200  -17.2680 H   0  0  0  0  0  0  0  0  0  0  0  0
   -2.7960    1.4710  -18.7200 H   0  0  0  0  0  0  0  0  0  0  0  0
   -5.3020   -0.0660  -22.7380 H   0  0  0  0  0  0  0  0  0  0  0  0
   -8.0700    3.4820  -22.7700 H   0  0  0  0  0  0  0  0  0  0  0  0
   -8.3230   -5.0910  -23.6960 H   0  0  0  0  0  0  0  0  0  0  0  0
   -5.0980    3.8360  -22.7210 H   0  0  0  0  0  0  0  0  0  0  0  0
   -5.8530    2.9180  -21.3830 H   0  0  0  0  0  0  0  0  0  0  0  0
   -6.3170    4.6250  -21.6790 H   0  0  0  0  0  0  0  0  0  0  0  0
   -7.9970    1.8790  -25.9970 H   0  0  0  0  0  0  0  0  0  0  0  0
   -8.7990    3.1910  -25.0920 H   0  0  0  0  0  0  0  0  0  0  0  0
   -9.1230   -2.7400  -24.9890 H   0  0  0  0  0  0  0  0  0  0  0  0
   -7.3800   -2.5120  -24.7560 H   0  0  0  0  0  0  0  0  0  0  0  0
   -6.3350   -2.1870  -22.8560 H   0  0  0  0  0  0  0  0  0  0  0  0
   -7.0300   -3.1700  -21.5390 H   0  0  0  0  0  0  0  0  0  0  0  0
   -7.4810   -0.1040  -24.2110 H   0  0  0  0  0  0  0  0  0  0  0  0
   -8.8500   -0.6490  -25.1750 H   0  0  0  0  0  0  0  0  0  0  0  0
   -9.1630   -3.0820  -22.3790 H   0  0  0  0  0  0  0  0  0  0  0  0
  8  2  2  0
  9  3  2  0
 10  4  2  0
 11  5  2  0
 11  6  1  0
 12  5  1  0
 13  7  2  0
 14  6  2  0
 15 12  2  0
 15 14  1  0
 17 16  1  0
 20 19  1  0
 21  1  1  0
 21 16  2  0
 21 18  1  0
 22  8  1  0
 22 17  2  0
 23 18  2  0
 23 22  1  0
 24  7  1  0
 25 19  2  0
 26 20  2  0
 27 13  1  0
 28 24  2  0
 28 25  1  0
 29 26  1  0
 29 27  2  0
 29 28  1  0
 30  9  1  0
 31 14  1  0
 32 10  1  0
 32 27  1  0
 33  8  1  0
 34 30  1  0
 35  9  1  0
 35 33  1  0
 36 31  1  0
 37 32  1  0
 38 33  1  0
 39 36  1  0
 39 37  1  0
 40 10  1  0
 40 23  1  0
 40 38  1  0
 40 39  1  0
 11 41  1  0
 12 42  1  0
 13 43  1  0
 15 44  1  0
 16 45  1  0
 17 46  1  0
 18 47  1  0
 19 48  1  0
 20 49  1  0
 24 50  1  0
 25 51  1  0
 26 52  1  0
 30 53  1  0
 31 54  1  0
 34 55  1  0
 34 56  1  0
 34 57  1  0
 35 58  1  0
 35 59  1  0
 36 60  1  0
 36 61  1  0
 37 62  1  0
 37 63  1  0
 38 64  1  0
 38 65  1  0
 39 66  1  0
M  END
>  <Favorite_cresset>
false

>  <Protein_cresset>
sars_P

>  <MW_cresset>
556.0

>  <#Atoms_cresset>
40

>  <SlogP_cresset>
2.9

>  <TPSA_cresset>
120.4

>  <Flexibility_cresset>
5.1

>  <HBA_cresset>
10

>  <HBD_cresset>
2

>  <Rof5_cresset>
1

>  <Confs_cresset>
0

>  <Poses_cresset>
0

$$$$
predicted (32)
  xed2sdf           3D
 
 57 62  0  0  1  0  0  0  0  0999 V2000
  -11.0050    2.2740  -24.5800 O   0  0  0  0  0  0  0  0  0  0  0  0
   -8.7980    0.6500  -21.4880 O   0  0  0  0  0  0  0  0  0  0  0  0
   -5.4200    3.1490  -23.3760 N   0  0  0  0  0  0  0  0  0  0  0  0
   -6.2550   -0.4600  -17.9750 N   0  0  0  0  0  0  0  0  0  0  0  0
   -5.9910    2.3480  -24.3380 N   0  0  0  0  0  0  0  0  0  0  0  0
   -6.2840    3.9920  -22.8650 N   0  0  0  0  0  0  0  0  0  0  0  0
  -10.4510    1.2200  -24.3180 C   0  0  0  0  0  0  0  0  0  0  0  0
   -8.4070   -0.4050  -21.9540 C   0  0  0  0  0  0  0  0  0  0  0  0
   -6.9510   -0.9040  -19.0410 C   0  0  0  0  0  0  0  0  0  0  0  0
  -13.4000   -0.8880  -23.0390 C   0  0  0  0  0  0  0  0  0  0  0  0
  -12.6430    0.1440  -23.6090 C   0  0  0  0  0  0  0  0  0  0  0  0
  -11.3570   -2.0760  -22.5190 C   0  0  0  0  0  0  0  0  0  0  0  0
   -2.8740    1.2980  -20.9540 C   0  0  0  0  0  0  0  0  0  0  0  0
   -3.5890    0.8300  -22.0640 C   0  0  0  0  0  0  0  0  0  0  0  0
  -12.7580   -1.9990  -22.5010 C   0  0  0  0  0  0  0  0  0  0  0  0
  -11.2250    0.0710  -23.6830 C   0  0  0  0  0  0  0  0  0  0  0  0
  -10.5620   -1.0620  -23.1340 C   0  0  0  0  0  0  0  0  0  0  0  0
   -5.1000    0.1940  -18.1870 C   0  0  0  0  0  0  0  0  0  0  0  0
   -3.3780    1.1020  -19.6590 C   0  0  0  0  0  0  0  0  0  0  0  0
   -4.8120    0.1740  -21.8810 C   0  0  0  0  0  0  0  0  0  0  0  0
   -6.5330   -0.7110  -20.3630 C   0  0  0  0  0  0  0  0  0  0  0  0
   -7.2520    2.7130  -24.3890 C   0  0  0  0  0  0  0  0  0  0  0  0
   -4.5880    0.4160  -19.4730 C   0  0  0  0  0  0  0  0  0  0  0  0
   -5.3140   -0.0480  -20.5860 C   0  0  0  0  0  0  0  0  0  0  0  0
   -7.3530   -1.1320  -21.4350 N   0  0  0  0  0  0  0  0  0  0  0  0
   -9.1050    1.0150  -24.6180 N   0  0  0  0  0  0  0  0  0  0  0  0
   -7.4630    3.7290  -23.4830 N   0  0  0  0  0  0  0  0  0  0  0  0
   -8.2820    2.0670  -25.2970 C   0  0  0  0  0  0  0  0  0  0  0  0
   -8.6950    4.4790  -23.1590 C   0  0  0  0  0  0  0  0  0  0  0  0
   -8.2000   -3.4120  -24.3230 C   0  0  0  0  0  0  0  0  0  0  0  0
   -7.1080   -2.3890  -22.1340 C   0  0  0  0  0  0  0  0  0  0  0  0
   -8.4620   -0.3090  -24.4180 C   0  0  0  0  0  0  0  0  0  0  0  0
   -8.3640   -2.5580  -23.0280 C   0  0  0  0  0  0  0  0  0  0  0  0
   -9.0050   -1.1050  -23.1770 C   0  0  0  0  0  0  0  0  0  0  0  0
  -13.4950   -2.9820  -21.9360 F   0  0  0  0  0  0  0  0  0  0  0  0
   -7.8760   -1.4340  -18.8340 H   0  0  0  0  0  0  0  0  0  0  0  0
  -14.4870   -0.8360  -23.0120 H   0  0  0  0  0  0  0  0  0  0  0  0
  -13.1850    1.0000  -24.0000 H   0  0  0  0  0  0  0  0  0  0  0  0
  -10.9290   -2.9360  -22.0220 H   0  0  0  0  0  0  0  0  0  0  0  0
   -1.9350    1.8200  -21.1000 H   0  0  0  0  0  0  0  0  0  0  0  0
   -3.2120    0.9950  -23.0690 H   0  0  0  0  0  0  0  0  0  0  0  0
   -4.5810    0.5580  -17.3020 H   0  0  0  0  0  0  0  0  0  0  0  0
   -2.8280    1.4840  -18.8070 H   0  0  0  0  0  0  0  0  0  0  0  0
   -5.3580   -0.1570  -22.7540 H   0  0  0  0  0  0  0  0  0  0  0  0
   -8.9200    2.8540  -25.7220 H   0  0  0  0  0  0  0  0  0  0  0  0
   -7.7750    1.6120  -26.1550 H   0  0  0  0  0  0  0  0  0  0  0  0
   -9.5430    3.7810  -23.1540 H   0  0  0  0  0  0  0  0  0  0  0  0
   -8.5990    4.9500  -22.1710 H   0  0  0  0  0  0  0  0  0  0  0  0
   -8.8650    5.2670  -23.9050 H   0  0  0  0  0  0  0  0  0  0  0  0
   -7.1450   -3.5060  -24.6130 H   0  0  0  0  0  0  0  0  0  0  0  0
   -8.7550   -2.9650  -25.1580 H   0  0  0  0  0  0  0  0  0  0  0  0
   -8.6020   -4.4290  -24.1740 H   0  0  0  0  0  0  0  0  0  0  0  0
   -6.1890   -2.3070  -22.7350 H   0  0  0  0  0  0  0  0  0  0  0  0
   -7.0110   -3.1930  -21.3840 H   0  0  0  0  0  0  0  0  0  0  0  0
   -7.3860   -0.1490  -24.2860 H   0  0  0  0  0  0  0  0  0  0  0  0
   -8.6070   -0.8940  -25.3320 H   0  0  0  0  0  0  0  0  0  0  0  0
   -8.9850   -3.1610  -22.3750 H   0  0  0  0  0  0  0  0  0  0  0  0
  5  3  1  0
  6  3  2  0
  7  1  2  0
  8  2  2  0
  9  4  2  0
 11 10  1  0
 14 13  1  0
 15 10  2  0
 15 12  1  0
 16  7  1  0
 16 11  2  0
 17 12  2  0
 17 16  1  0
 18  4  1  0
 19 13  2  0
 20 14  2  0
 21  9  1  0
 22  5  2  0
 23 18  2  0
 23 19  1  0
 24 20  1  0
 24 21  2  0
 24 23  1  0
 25  8  1  0
 25 21  1  0
 26  7  1  0
 27  6  1  0
 27 22  1  0
 28 22  1  0
 28 26  1  0
 29 27  1  0
 31 25  1  0
 32 26  1  0
 33 30  1  0
 33 31  1  0
 34  8  1  0
 34 17  1  0
 34 32  1  0
 34 33  1  0
 35 15  1  0
  9 36  1  0
 10 37  1  0
 11 38  1  0
 12 39  1  0
 13 40  1  0
 14 41  1  0
 18 42  1  0
 19 43  1  0
 20 44  1  0
 28 45  1  0
 28 46  1  0
 29 47  1  0
 29 48  1  0
 29 49  1  0
 30 50  1  0
 30 51  1  0
 30 52  1  0
 31 53  1  0
 31 54  1  0
 32 55  1  0
 32 56  1  0
 33 57  1  0
M  END
>  <Favorite_cresset>
false

>  <Protein_cresset>
sars_P

>  <MW_cresset>
471.5

>  <#Atoms_cresset>
35

>  <SlogP_cresset>
2.7

>  <TPSA_cresset>
97.1

>  <Flexibility_cresset>
2.9

>  <HBA_cresset>
9

>  <HBD_cresset>
0

>  <Rof5_cresset>
0

>  <Confs_cresset>
0

>  <Poses_cresset>
0

$$$$
predicted (33)
  xed2sdf           3D
 
 46 47  0  0  1  0  0  0  0  0999 V2000
  -13.4640   -3.0780  -22.1670 Cl  0  0  0  0  0  0  0  0  0  0  0  0
   -7.4190   -0.3220  -21.7330 O   0  0  0  0  0  0  0  0  0  0  0  0
   -5.1740    0.9110  -19.4950 O   0  0  0  0  0  0  0  0  0  0  0  0
   -5.8910    0.3900  -17.1340 O   0  0  0  0  0  0  0  0  0  0  0  0
  -12.4830    6.4970  -24.7840 O   0  0  0  0  0  0  0  0  0  0  0  0
  -10.9760    5.8200  -26.7340 O   0  0  0  0  0  0  0  0  0  0  0  0
   -7.1890   -0.5750  -19.0120 O   0  0  0  0  0  0  0  0  0  0  0  0
   -7.4080   -1.4530  -21.2780 C   0  0  0  0  0  0  0  0  0  0  0  0
  -10.4210    1.8340  -24.9890 C   0  0  0  0  0  0  0  0  0  0  0  0
  -12.4620    2.1210  -23.6860 C   0  0  0  0  0  0  0  0  0  0  0  0
  -12.2900   -0.8680  -23.1500 C   0  0  0  0  0  0  0  0  0  0  0  0
  -10.8020   -2.7690  -22.8500 C   0  0  0  0  0  0  0  0  0  0  0  0
   -9.9240   -0.6790  -23.6510 C   0  0  0  0  0  0  0  0  0  0  0  0
  -10.4580    3.1700  -25.3560 C   0  0  0  0  0  0  0  0  0  0  0  0
  -12.5080    3.4670  -24.0810 C   0  0  0  0  0  0  0  0  0  0  0  0
  -12.0860   -2.1940  -22.7710 C   0  0  0  0  0  0  0  0  0  0  0  0
  -11.3750    1.3020  -24.0860 C   0  0  0  0  0  0  0  0  0  0  0  0
  -11.2110   -0.0970  -23.6230 C   0  0  0  0  0  0  0  0  0  0  0  0
   -9.7000   -2.0020  -23.2770 C   0  0  0  0  0  0  0  0  0  0  0  0
  -11.4780    3.9980  -24.8880 C   0  0  0  0  0  0  0  0  0  0  0  0
   -7.6320   -2.5780  -22.0400 N   0  0  0  0  0  0  0  0  0  0  0  0
   -4.8000   -1.3220  -18.4880 N   0  0  0  0  0  0  0  0  0  0  0  0
   -9.9390    6.1650  -24.4540 N   0  0  0  0  0  0  0  0  0  0  0  0
   -7.2900   -1.7640  -19.8060 C   0  0  0  0  0  0  0  0  0  0  0  0
   -8.1590   -3.8950  -24.0080 C   0  0  0  0  0  0  0  0  0  0  0  0
   -8.2620   -2.5240  -23.3500 C   0  0  0  0  0  0  0  0  0  0  0  0
   -5.7530    0.0050  -18.5170 S   0  0  0  0  0  0  0  0  0  0  0  0
  -11.3480    5.7400  -25.3180 S   0  0  0  0  0  0  0  0  0  0  0  0
   -9.6640    1.2100  -25.4590 H   0  0  0  0  0  0  0  0  0  0  0  0
  -13.2590    1.7230  -23.0590 H   0  0  0  0  0  0  0  0  0  0  0  0
  -13.2890   -0.4490  -23.0850 H   0  0  0  0  0  0  0  0  0  0  0  0
  -10.6700   -3.8060  -22.5870 H   0  0  0  0  0  0  0  0  0  0  0  0
   -9.0700   -0.0900  -23.9670 H   0  0  0  0  0  0  0  0  0  0  0  0
   -9.6870    3.5540  -26.0130 H   0  0  0  0  0  0  0  0  0  0  0  0
  -13.3390    4.0730  -23.7360 H   0  0  0  0  0  0  0  0  0  0  0  0
   -7.4980   -3.4940  -21.6220 H   0  0  0  0  0  0  0  0  0  0  0  0
   -4.0630   -1.1960  -19.1790 H   0  0  0  0  0  0  0  0  0  0  0  0
   -4.2780   -1.2930  -17.6090 H   0  0  0  0  0  0  0  0  0  0  0  0
   -9.6770    7.1310  -24.6430 H   0  0  0  0  0  0  0  0  0  0  0  0
  -10.1030    6.1030  -23.4490 H   0  0  0  0  0  0  0  0  0  0  0  0
   -8.2060   -2.2780  -19.5180 H   0  0  0  0  0  0  0  0  0  0  0  0
   -6.4680   -2.4730  -19.6700 H   0  0  0  0  0  0  0  0  0  0  0  0
   -7.1030   -4.1780  -24.0720 H   0  0  0  0  0  0  0  0  0  0  0  0
   -8.5850   -3.8840  -25.0170 H   0  0  0  0  0  0  0  0  0  0  0  0
   -8.6770   -4.6500  -23.4080 H   0  0  0  0  0  0  0  0  0  0  0  0
   -7.6750   -1.8200  -23.9560 H   0  0  0  0  0  0  0  0  0  0  0  0
  8  2  2  0
 14  9  2  0
 15 10  1  0
 16  1  1  0
 16 11  1  0
 16 12  2  0
 17  9  1  0
 17 10  2  0
 18 11  2  0
 18 13  1  0
 18 17  1  0
 19 12  1  0
 19 13  2  0
 20 14  1  0
 20 15  2  0
 21  8  1  0
 24  7  1  0
 24  8  1  0
 26 19  1  0
 26 21  1  0
 26 25  1  0
 27  3  2  0
 27  4  2  0
 27  7  1  0
 27 22  1  0
 28  5  2  0
 28  6  2  0
 28 20  1  0
 28 23  1  0
  9 29  1  0
 10 30  1  0
 11 31  1  0
 12 32  1  0
 13 33  1  0
 14 34  1  0
 15 35  1  0
 21 36  1  0
 22 37  1  0
 22 38  1  0
 23 39  1  0
 23 40  1  0
 24 41  1  0
 24 42  1  0
 25 43  1  0
 25 44  1  0
 25 45  1  0
 26 46  1  0
M  END
>  <Favorite_cresset>
false

>  <Protein_cresset>
sars_P

>  <MW_cresset>
447.9

>  <#Atoms_cresset>
28

>  <SlogP_cresset>
1.1

>  <TPSA_cresset>
158.6

>  <Flexibility_cresset>
6.7

>  <HBA_cresset>
9

>  <HBD_cresset>
5

>  <Rof5_cresset>
0

>  <Confs_cresset>
0

>  <Poses_cresset>
0

$$$$
predicted (34)
  xed2sdf           3D
 
 66 70  0  0  1  0  0  0  0  0999 V2000
  -13.6660   -3.0180  -21.5790 Cl  0  0  0  0  0  0  0  0  0  0  0  0
  -10.6670    2.3300  -24.2810 O   0  0  0  0  0  0  0  0  0  0  0  0
   -5.5710    1.8330  -24.4590 O   0  0  0  0  0  0  0  0  0  0  0  0
   -8.5470    0.4860  -21.3210 O   0  0  0  0  0  0  0  0  0  0  0  0
   -6.0340   -0.6390  -17.9380 N   0  0  0  0  0  0  0  0  0  0  0  0
   -7.8010   -4.7180  -24.0400 O   0  0  0  0  0  0  0  0  0  0  0  0
  -10.1700    1.2260  -24.1160 C   0  0  0  0  0  0  0  0  0  0  0  0
   -6.6660    2.2620  -24.1290 C   0  0  0  0  0  0  0  0  0  0  0  0
   -8.1800   -0.5510  -21.8380 C   0  0  0  0  0  0  0  0  0  0  0  0
   -6.7090   -1.1150  -19.0010 C   0  0  0  0  0  0  0  0  0  0  0  0
  -13.2220   -0.7580  -22.9800 C   0  0  0  0  0  0  0  0  0  0  0  0
  -12.4030    0.2300  -23.5290 C   0  0  0  0  0  0  0  0  0  0  0  0
  -11.2290   -2.0560  -22.4330 C   0  0  0  0  0  0  0  0  0  0  0  0
   -2.6560    1.1470  -20.9140 C   0  0  0  0  0  0  0  0  0  0  0  0
   -3.3460    0.6280  -22.0200 C   0  0  0  0  0  0  0  0  0  0  0  0
  -12.6300   -1.8810  -22.4050 C   0  0  0  0  0  0  0  0  0  0  0  0
  -10.9950    0.0880  -23.5630 C   0  0  0  0  0  0  0  0  0  0  0  0
  -10.3770   -1.0780  -23.0340 C   0  0  0  0  0  0  0  0  0  0  0  0
   -4.8910    0.0390  -18.1540 C   0  0  0  0  0  0  0  0  0  0  0  0
   -3.1790    0.9820  -19.6240 C   0  0  0  0  0  0  0  0  0  0  0  0
   -4.5550   -0.0560  -21.8450 C   0  0  0  0  0  0  0  0  0  0  0  0
   -6.2720   -0.9360  -20.3190 C   0  0  0  0  0  0  0  0  0  0  0  0
   -4.3640    0.2520  -19.4360 C   0  0  0  0  0  0  0  0  0  0  0  0
   -5.0580   -0.2600  -20.5490 C   0  0  0  0  0  0  0  0  0  0  0  0
   -6.8650    2.9910  -22.9690 N   0  0  0  0  0  0  0  0  0  0  0  0
   -7.1140   -1.3000  -21.3880 N   0  0  0  0  0  0  0  0  0  0  0  0
   -8.8240    0.9720  -24.3820 N   0  0  0  0  0  0  0  0  0  0  0  0
   -5.8040    3.3740  -22.0290 C   0  0  0  0  0  0  0  0  0  0  0  0
   -7.9320    2.0160  -24.9690 C   0  0  0  0  0  0  0  0  0  0  0  0
   -7.4500   -6.9930  -24.4690 C   0  0  0  0  0  0  0  0  0  0  0  0
   -8.8850   -5.5820  -26.0450 C   0  0  0  0  0  0  0  0  0  0  0  0
   -7.6370   -5.6270  -25.1320 C   0  0  0  0  0  0  0  0  0  0  0  0
   -7.9470   -3.3300  -24.3370 C   0  0  0  0  0  0  0  0  0  0  0  0
   -6.9400   -2.5340  -22.1290 C   0  0  0  0  0  0  0  0  0  0  0  0
   -8.2760   -0.3990  -24.3090 C   0  0  0  0  0  0  0  0  0  0  0  0
   -8.2160   -2.6360  -22.9930 C   0  0  0  0  0  0  0  0  0  0  0  0
   -8.8140   -1.1830  -23.0750 C   0  0  0  0  0  0  0  0  0  0  0  0
   -7.6500   -1.6300  -18.7940 H   0  0  0  0  0  0  0  0  0  0  0  0
  -14.3030   -0.6300  -22.9680 H   0  0  0  0  0  0  0  0  0  0  0  0
  -12.8770    1.1230  -23.9240 H   0  0  0  0  0  0  0  0  0  0  0  0
  -10.8430   -2.9440  -21.9410 H   0  0  0  0  0  0  0  0  0  0  0  0
   -1.7230    1.6820  -21.0650 H   0  0  0  0  0  0  0  0  0  0  0  0
   -2.9490    0.7690  -23.0170 H   0  0  0  0  0  0  0  0  0  0  0  0
   -4.4010    0.4300  -17.2700 H   0  0  0  0  0  0  0  0  0  0  0  0
   -2.6660    1.4200  -18.7760 H   0  0  0  0  0  0  0  0  0  0  0  0
   -5.0900   -0.4160  -22.7210 H   0  0  0  0  0  0  0  0  0  0  0  0
   -7.8010    3.3190  -22.7750 H   0  0  0  0  0  0  0  0  0  0  0  0
   -4.8220    3.3670  -22.5150 H   0  0  0  0  0  0  0  0  0  0  0  0
   -5.7860    2.6650  -21.1960 H   0  0  0  0  0  0  0  0  0  0  0  0
   -6.0100    4.3840  -21.6470 H   0  0  0  0  0  0  0  0  0  0  0  0
   -7.6230    1.7240  -25.9800 H   0  0  0  0  0  0  0  0  0  0  0  0
   -8.4690    2.9700  -25.0430 H   0  0  0  0  0  0  0  0  0  0  0  0
   -6.3830   -7.2080  -24.3190 H   0  0  0  0  0  0  0  0  0  0  0  0
   -7.9470   -7.0410  -23.4920 H   0  0  0  0  0  0  0  0  0  0  0  0
   -7.8910   -7.7570  -25.1090 H   0  0  0  0  0  0  0  0  0  0  0  0
   -9.8080   -5.5870  -25.4540 H   0  0  0  0  0  0  0  0  0  0  0  0
   -8.8640   -4.6770  -26.6610 H   0  0  0  0  0  0  0  0  0  0  0  0
   -8.9060   -6.4320  -26.7360 H   0  0  0  0  0  0  0  0  0  0  0  0
   -6.7440   -5.3940  -25.7200 H   0  0  0  0  0  0  0  0  0  0  0  0
   -7.0340   -2.9440  -24.8080 H   0  0  0  0  0  0  0  0  0  0  0  0
   -8.8150   -3.1790  -24.9900 H   0  0  0  0  0  0  0  0  0  0  0  0
   -6.0330   -2.4640  -22.7440 H   0  0  0  0  0  0  0  0  0  0  0  0
   -6.8450   -3.3900  -21.4510 H   0  0  0  0  0  0  0  0  0  0  0  0
   -7.1790   -0.3600  -24.2440 H   0  0  0  0  0  0  0  0  0  0  0  0
   -8.5620   -0.9140  -25.2340 H   0  0  0  0  0  0  0  0  0  0  0  0
   -8.9130   -3.2680  -22.4340 H   0  0  0  0  0  0  0  0  0  0  0  0
  7  2  2  0
  8  3  2  0
  9  4  2  0
 10  5  2  0
 12 11  1  0
 15 14  1  0
 16  1  1  0
 16 11  2  0
 16 13  1  0
 17  7  1  0
 17 12  2  0
 18 13  2  0
 18 17  1  0
 19  5  1  0
 20 14  2  0
 21 15  2  0
 22 10  1  0
 23 19  2  0
 23 20  1  0
 24 21  1  0
 24 22  2  0
 24 23  1  0
 25  8  1  0
 26  9  1  0
 26 22  1  0
 27  7  1  0
 28 25  1  0
 29  8  1  0
 29 27  1  0
 32  6  1  0
 32 30  1  0
 32 31  1  0
 33  6  1  0
 34 26  1  0
 35 27  1  0
 36 33  1  0
 36 34  1  0
 37  9  1  0
 37 18  1  0
 37 35  1  0
 37 36  1  0
 10 38  1  0
 11 39  1  0
 12 40  1  0
 13 41  1  0
 14 42  1  0
 15 43  1  0
 19 44  1  0
 20 45  1  0
 21 46  1  0
 25 47  1  0
 28 48  1  0
 28 49  1  0
 28 50  1  0
 29 51  1  0
 29 52  1  0
 30 53  1  0
 30 54  1  0
 30 55  1  0
 31 56  1  0
 31 57  1  0
 31 58  1  0
 32 59  1  0
 33 60  1  0
 33 61  1  0
 34 62  1  0
 34 63  1  0
 35 64  1  0
 35 65  1  0
 36 66  1  0
M  END
>  <Favorite_cresset>
false

>  <Protein_cresset>
sars_P

>  <MW_cresset>
521.0

>  <#Atoms_cresset>
37

>  <SlogP_cresset>
3.4

>  <TPSA_cresset>
91.8

>  <Flexibility_cresset>
5.9

>  <HBA_cresset>
8

>  <HBD_cresset>
1

>  <Rof5_cresset>
1

>  <Confs_cresset>
0

>  <Poses_cresset>
0

$$$$
predicted (35)
  xed2sdf           3D
 
 40 42  0  0  0  0  0  0  0  0999 V2000
   -8.1310    0.2880  -21.1830 O   0  0  0  0  0  0  0  0  0  0  0  0
   -5.9030   -0.6420  -17.7970 N   0  0  0  0  0  0  0  0  0  0  0  0
   -7.9600   -0.7770  -21.7490 C   0  0  0  0  0  0  0  0  0  0  0  0
   -6.4960   -1.2980  -18.8040 C   0  0  0  0  0  0  0  0  0  0  0  0
   -2.6740    1.2310  -20.8690 C   0  0  0  0  0  0  0  0  0  0  0  0
   -3.3220    0.6130  -21.9480 C   0  0  0  0  0  0  0  0  0  0  0  0
   -4.8480    0.1360  -18.0660 C   0  0  0  0  0  0  0  0  0  0  0  0
   -3.1850    1.0800  -19.5720 C   0  0  0  0  0  0  0  0  0  0  0  0
   -4.4540   -0.1900  -21.7310 C   0  0  0  0  0  0  0  0  0  0  0  0
   -6.0780   -1.1850  -20.1390 C   0  0  0  0  0  0  0  0  0  0  0  0
   -4.3110    0.2710  -19.3530 C   0  0  0  0  0  0  0  0  0  0  0  0
   -4.9440   -0.3860  -20.4230 C   0  0  0  0  0  0  0  0  0  0  0  0
   -8.6350   -1.0980  -22.9330 N   0  0  0  0  0  0  0  0  0  0  0  0
   -6.9520   -1.8150  -21.2130 C   0  0  0  0  0  0  0  0  0  0  0  0
  -12.8290   -2.3390  -22.8970 C   0  0  0  0  0  0  0  0  0  0  0  0
   -9.4920   -0.1200  -23.6280 C   0  0  0  0  0  0  0  0  0  0  0  0
   -8.8790   -2.4670  -23.4170 C   0  0  0  0  0  0  0  0  0  0  0  0
  -11.0050   -0.4160  -23.3470 C   0  0  0  0  0  0  0  0  0  0  0  0
  -10.3190   -2.9010  -23.0540 C   0  0  0  0  0  0  0  0  0  0  0  0
  -11.4310   -1.9200  -23.5250 C   0  0  0  0  0  0  0  0  0  0  0  0
  -13.8410   -1.5740  -23.3670 F   0  0  0  0  0  0  0  0  0  0  0  0
  -12.9200   -2.2710  -21.5860 F   0  0  0  0  0  0  0  0  0  0  0  0
  -13.0660   -3.6390  -23.1650 F   0  0  0  0  0  0  0  0  0  0  0  0
   -7.3720   -1.8910  -18.5390 H   0  0  0  0  0  0  0  0  0  0  0  0
   -1.7920    1.8440  -21.0350 H   0  0  0  0  0  0  0  0  0  0  0  0
   -2.9550    0.7580  -22.9600 H   0  0  0  0  0  0  0  0  0  0  0  0
   -4.4550    0.6930  -17.2270 H   0  0  0  0  0  0  0  0  0  0  0  0
   -2.7090    1.5900  -18.7440 H   0  0  0  0  0  0  0  0  0  0  0  0
   -4.9410   -0.6430  -22.5860 H   0  0  0  0  0  0  0  0  0  0  0  0
   -7.5270   -2.6450  -20.7910 H   0  0  0  0  0  0  0  0  0  0  0  0
   -6.3500   -2.2420  -22.0240 H   0  0  0  0  0  0  0  0  0  0  0  0
   -9.2680   -0.1810  -24.7040 H   0  0  0  0  0  0  0  0  0  0  0  0
   -9.2340    0.9040  -23.3100 H   0  0  0  0  0  0  0  0  0  0  0  0
   -8.1640   -3.1800  -22.9890 H   0  0  0  0  0  0  0  0  0  0  0  0
   -8.7410   -2.4780  -24.5090 H   0  0  0  0  0  0  0  0  0  0  0  0
  -11.6170    0.2470  -23.9710 H   0  0  0  0  0  0  0  0  0  0  0  0
  -11.2040   -0.1330  -22.3200 H   0  0  0  0  0  0  0  0  0  0  0  0
  -10.4970   -3.8950  -23.4820 H   0  0  0  0  0  0  0  0  0  0  0  0
  -10.3860   -3.0060  -21.9660 H   0  0  0  0  0  0  0  0  0  0  0  0
  -11.5160   -2.0640  -24.6090 H   0  0  0  0  0  0  0  0  0  0  0  0
  3  1  2  0
  4  2  2  0
  6  5  1  0
  7  2  1  0
  8  5  2  0
  9  6  2  0
 10  4  1  0
 11  7  2  0
 11  8  1  0
 12  9  1  0
 12 10  2  0
 12 11  1  0
 13  3  1  0
 14  3  1  0
 14 10  1  0
 16 13  1  0
 17 13  1  0
 18 16  1  0
 19 17  1  0
 20 15  1  0
 20 18  1  0
 20 19  1  0
 21 15  1  0
 22 15  1  0
 23 15  1  0
  4 24  1  0
  5 25  1  0
  6 26  1  0
  7 27  1  0
  8 28  1  0
  9 29  1  0
 14 30  1  0
 14 31  1  0
 16 32  1  0
 16 33  1  0
 17 34  1  0
 17 35  1  0
 18 36  1  0
 18 37  1  0
 19 38  1  0
 19 39  1  0
 20 40  1  0
M  END
>  <Favorite_cresset>
false

>  <Protein_cresset>
sars_P

>  <MW_cresset>
322.3

>  <#Atoms_cresset>
23

>  <SlogP_cresset>
3.6

>  <TPSA_cresset>
33.2

>  <Flexibility_cresset>
3.2

>  <HBA_cresset>
3

>  <HBD_cresset>
0

>  <Rof5_cresset>
0

>  <Confs_cresset>
0

>  <Poses_cresset>
0

$$$$
predicted (36)
  xed2sdf           3D
 
 47 50  0  0  1  0  0  0  0  0999 V2000
   -8.2560   -0.2090  -21.0910 O   0  0  0  0  0  0  0  0  0  0  0  0
   -5.8750   -0.4620  -17.7440 N   0  0  0  0  0  0  0  0  0  0  0  0
   -7.7920   -1.1510  -21.7130 C   0  0  0  0  0  0  0  0  0  0  0  0
   -6.3540   -1.2420  -18.7270 C   0  0  0  0  0  0  0  0  0  0  0  0
  -13.4560   -1.6220  -22.9420 C   0  0  0  0  0  0  0  0  0  0  0  0
  -12.4490   -2.4710  -22.4820 C   0  0  0  0  0  0  0  0  0  0  0  0
  -13.1190   -0.4760  -23.6690 C   0  0  0  0  0  0  0  0  0  0  0  0
  -11.1010   -2.1820  -22.7530 C   0  0  0  0  0  0  0  0  0  0  0  0
  -11.7660   -0.1770  -23.9260 C   0  0  0  0  0  0  0  0  0  0  0  0
   -2.7540    1.5380  -20.8390 C   0  0  0  0  0  0  0  0  0  0  0  0
   -3.3560    0.8510  -21.9060 C   0  0  0  0  0  0  0  0  0  0  0  0
  -10.7280   -1.0380  -23.5070 C   0  0  0  0  0  0  0  0  0  0  0  0
   -4.8830    0.3870  -18.0300 C   0  0  0  0  0  0  0  0  0  0  0  0
   -3.2580    1.3830  -19.5390 C   0  0  0  0  0  0  0  0  0  0  0  0
   -4.4050   -0.0530  -21.6750 C   0  0  0  0  0  0  0  0  0  0  0  0
   -5.9080   -1.1690  -20.0510 C   0  0  0  0  0  0  0  0  0  0  0  0
   -4.3180    0.4950  -19.3060 C   0  0  0  0  0  0  0  0  0  0  0  0
   -4.8710   -0.2650  -20.3590 C   0  0  0  0  0  0  0  0  0  0  0  0
   -8.2680   -1.4950  -22.9840 N   0  0  0  0  0  0  0  0  0  0  0  0
   -6.6440   -1.9810  -21.1060 C   0  0  0  0  0  0  0  0  0  0  0  0
   -7.9110   -2.7270  -23.7320 C   0  0  0  0  0  0  0  0  0  0  0  0
   -7.2960   -2.4310  -25.1090 C   0  0  0  0  0  0  0  0  0  0  0  0
   -8.2940   -1.6070  -25.9330 C   0  0  0  0  0  0  0  0  0  0  0  0
   -8.7200   -0.3430  -25.1470 C   0  0  0  0  0  0  0  0  0  0  0  0
   -9.2340   -0.6100  -23.6940 C   0  0  0  0  0  0  0  0  0  0  0  0
   -7.1610   -1.9190  -18.4640 H   0  0  0  0  0  0  0  0  0  0  0  0
  -14.4960   -1.8440  -22.7350 H   0  0  0  0  0  0  0  0  0  0  0  0
  -12.7270   -3.3490  -21.9050 H   0  0  0  0  0  0  0  0  0  0  0  0
  -13.9080    0.1810  -24.0270 H   0  0  0  0  0  0  0  0  0  0  0  0
  -10.3600   -2.8560  -22.3340 H   0  0  0  0  0  0  0  0  0  0  0  0
  -11.5040    0.7440  -24.4310 H   0  0  0  0  0  0  0  0  0  0  0  0
   -1.9310    2.2210  -21.0340 H   0  0  0  0  0  0  0  0  0  0  0  0
   -3.0080    1.0380  -22.9190 H   0  0  0  0  0  0  0  0  0  0  0  0
   -4.5660    1.0380  -17.2240 H   0  0  0  0  0  0  0  0  0  0  0  0
   -2.8260    1.9570  -18.7230 H   0  0  0  0  0  0  0  0  0  0  0  0
   -4.8600   -0.5590  -22.5250 H   0  0  0  0  0  0  0  0  0  0  0  0
   -7.0800   -2.8750  -20.6630 H   0  0  0  0  0  0  0  0  0  0  0  0
   -5.9560   -2.3510  -21.8670 H   0  0  0  0  0  0  0  0  0  0  0  0
   -8.8310   -3.2920  -23.9040 H   0  0  0  0  0  0  0  0  0  0  0  0
   -7.2400   -3.3660  -23.1540 H   0  0  0  0  0  0  0  0  0  0  0  0
   -6.3570   -1.8760  -24.9950 H   0  0  0  0  0  0  0  0  0  0  0  0
   -7.0660   -3.3750  -25.6190 H   0  0  0  0  0  0  0  0  0  0  0  0
   -7.8490   -1.3350  -26.9000 H   0  0  0  0  0  0  0  0  0  0  0  0
   -9.1700   -2.2280  -26.1390 H   0  0  0  0  0  0  0  0  0  0  0  0
   -7.8220    0.2830  -25.0650 H   0  0  0  0  0  0  0  0  0  0  0  0
   -9.4460    0.2390  -25.7160 H   0  0  0  0  0  0  0  0  0  0  0  0
   -9.1650    0.3840  -23.2310 H   0  0  0  0  0  0  0  0  0  0  0  0
  3  1  2  0
  4  2  2  0
  6  5  2  0
  7  5  1  0
  8  6  1  0
  9  7  2  0
 11 10  1  0
 12  8  2  0
 12  9  1  0
 13  2  1  0
 14 10  2  0
 15 11  2  0
 16  4  1  0
 17 13  2  0
 17 14  1  0
 18 15  1  0
 18 16  2  0
 18 17  1  0
 19  3  1  0
 20  3  1  0
 20 16  1  0
 21 19  1  0
 22 21  1  0
 23 22  1  0
 24 23  1  0
 25 12  1  0
 25 19  1  0
 25 24  1  0
  4 26  1  0
  5 27  1  0
  6 28  1  0
  7 29  1  0
  8 30  1  0
  9 31  1  0
 10 32  1  0
 11 33  1  0
 13 34  1  0
 14 35  1  0
 15 36  1  0
 20 37  1  0
 20 38  1  0
 21 39  1  0
 21 40  1  0
 22 41  1  0
 22 42  1  0
 23 43  1  0
 23 44  1  0
 24 45  1  0
 24 46  1  0
 25 47  1  0
M  END
>  <Favorite_cresset>
false

>  <Protein_cresset>
sars_P

>  <MW_cresset>
330.4

>  <#Atoms_cresset>
25

>  <SlogP_cresset>
4.5

>  <TPSA_cresset>
33.2

>  <Flexibility_cresset>
3.4

>  <HBA_cresset>
3

>  <HBD_cresset>
0

>  <Rof5_cresset>
0

>  <Confs_cresset>
0

>  <Poses_cresset>
0

$$$$
predicted (37)
  xed2sdf           3D
 
 56 60  0  0  1  0  0  0  0  0999 V2000
  -11.2550    2.0850  -23.7420 O   0  0  0  0  0  0  0  0  0  0  0  0
   -9.4800    3.6200  -25.7910 O   0  0  0  0  0  0  0  0  0  0  0  0
   -8.8700    0.2810  -21.2930 O   0  0  0  0  0  0  0  0  0  0  0  0
   -6.1080   -0.7110  -18.0060 N   0  0  0  0  0  0  0  0  0  0  0  0
  -10.5970    1.0620  -23.8260 C   0  0  0  0  0  0  0  0  0  0  0  0
   -9.0680    3.5430  -24.6460 C   0  0  0  0  0  0  0  0  0  0  0  0
   -8.3540   -0.6440  -21.8920 C   0  0  0  0  0  0  0  0  0  0  0  0
   -6.7920   -1.1350  -19.0890 C   0  0  0  0  0  0  0  0  0  0  0  0
  -13.2630   -1.5840  -23.0900 C   0  0  0  0  0  0  0  0  0  0  0  0
  -12.4760   -2.6760  -22.7270 C   0  0  0  0  0  0  0  0  0  0  0  0
  -12.6480   -0.3930  -23.4970 C   0  0  0  0  0  0  0  0  0  0  0  0
  -11.0820   -2.5770  -22.7400 C   0  0  0  0  0  0  0  0  0  0  0  0
   -2.9440    1.5290  -20.9010 C   0  0  0  0  0  0  0  0  0  0  0  0
   -3.6600    1.1080  -22.0300 C   0  0  0  0  0  0  0  0  0  0  0  0
  -11.2350   -0.2780  -23.5140 C   0  0  0  0  0  0  0  0  0  0  0  0
  -10.4310   -1.3910  -23.1510 C   0  0  0  0  0  0  0  0  0  0  0  0
   -5.0060    0.0360  -18.1890 C   0  0  0  0  0  0  0  0  0  0  0  0
   -3.3890    1.1830  -19.6160 C   0  0  0  0  0  0  0  0  0  0  0  0
   -4.8160    0.3330  -21.8770 C   0  0  0  0  0  0  0  0  0  0  0  0
   -6.3990   -0.8390  -20.4000 C   0  0  0  0  0  0  0  0  0  0  0  0
   -4.5370    0.3880  -19.4620 C   0  0  0  0  0  0  0  0  0  0  0  0
   -5.2510   -0.0520  -20.5940 C   0  0  0  0  0  0  0  0  0  0  0  0
   -9.1820    4.5850  -23.7440 N   0  0  0  0  0  0  0  0  0  0  0  0
   -7.1940   -1.2650  -21.4910 N   0  0  0  0  0  0  0  0  0  0  0  0
   -9.2290    1.0570  -24.1450 N   0  0  0  0  0  0  0  0  0  0  0  0
  -10.0220    5.7640  -23.9670 C   0  0  0  0  0  0  0  0  0  0  0  0
   -8.3740    2.2890  -24.0770 C   0  0  0  0  0  0  0  0  0  0  0  0
   -7.7700   -3.2020  -24.6910 C   0  0  0  0  0  0  0  0  0  0  0  0
   -6.8130   -2.3990  -22.3300 C   0  0  0  0  0  0  0  0  0  0  0  0
   -8.4950   -0.2210  -24.3000 C   0  0  0  0  0  0  0  0  0  0  0  0
   -8.0450   -2.6140  -23.2620 C   0  0  0  0  0  0  0  0  0  0  0  0
   -8.8800   -1.2540  -23.1910 C   0  0  0  0  0  0  0  0  0  0  0  0
   -7.6900   -1.7180  -18.9000 H   0  0  0  0  0  0  0  0  0  0  0  0
  -14.3440   -1.6840  -23.0860 H   0  0  0  0  0  0  0  0  0  0  0  0
  -12.9490   -3.6090  -22.4420 H   0  0  0  0  0  0  0  0  0  0  0  0
  -13.2850    0.4340  -23.7970 H   0  0  0  0  0  0  0  0  0  0  0  0
  -10.5310   -3.4430  -22.4040 H   0  0  0  0  0  0  0  0  0  0  0  0
   -2.0510    2.1350  -21.0230 H   0  0  0  0  0  0  0  0  0  0  0  0
   -3.3270    1.3890  -23.0260 H   0  0  0  0  0  0  0  0  0  0  0  0
   -4.5050    0.3800  -17.2860 H   0  0  0  0  0  0  0  0  0  0  0  0
   -2.8460    1.5380  -18.7480 H   0  0  0  0  0  0  0  0  0  0  0  0
   -5.3680    0.0440  -22.7620 H   0  0  0  0  0  0  0  0  0  0  0  0
   -8.8590    4.4230  -22.8010 H   0  0  0  0  0  0  0  0  0  0  0  0
  -11.0790    5.4890  -23.8530 H   0  0  0  0  0  0  0  0  0  0  0  0
   -9.8600    6.1840  -24.9700 H   0  0  0  0  0  0  0  0  0  0  0  0
   -9.7630    6.5150  -23.2120 H   0  0  0  0  0  0  0  0  0  0  0  0
   -7.4420    2.1490  -24.6470 H   0  0  0  0  0  0  0  0  0  0  0  0
   -8.1020    2.4880  -23.0290 H   0  0  0  0  0  0  0  0  0  0  0  0
   -6.6980   -3.2180  -24.9250 H   0  0  0  0  0  0  0  0  0  0  0  0
   -8.2770   -2.6240  -25.4730 H   0  0  0  0  0  0  0  0  0  0  0  0
   -8.1480   -4.2360  -24.7770 H   0  0  0  0  0  0  0  0  0  0  0  0
   -5.9080   -2.1500  -22.9020 H   0  0  0  0  0  0  0  0  0  0  0  0
   -6.6210   -3.2650  -21.6720 H   0  0  0  0  0  0  0  0  0  0  0  0
   -7.4160   -0.0220  -24.2510 H   0  0  0  0  0  0  0  0  0  0  0  0
   -8.7260   -0.6170  -25.2960 H   0  0  0  0  0  0  0  0  0  0  0  0
   -8.5660   -3.3970  -22.7240 H   0  0  0  0  0  0  0  0  0  0  0  0
  5  1  2  0
  6  2  2  0
  7  3  2  0
  8  4  2  0
 10  9  2  0
 11  9  1  0
 12 10  1  0
 14 13  1  0
 15  5  1  0
 15 11  2  0
 16 12  2  0
 16 15  1  0
 17  4  1  0
 18 13  2  0
 19 14  2  0
 20  8  1  0
 21 17  2  0
 21 18  1  0
 22 19  1  0
 22 20  2  0
 22 21  1  0
 23  6  1  0
 24  7  1  0
 24 20  1  0
 25  5  1  0
 26 23  1  0
 27  6  1  0
 27 25  1  0
 29 24  1  0
 30 25  1  0
 31 28  1  0
 31 29  1  0
 32  7  1  0
 32 16  1  0
 32 30  1  0
 32 31  1  0
  8 33  1  0
  9 34  1  0
 10 35  1  0
 11 36  1  0
 12 37  1  0
 13 38  1  0
 14 39  1  0
 17 40  1  0
 18 41  1  0
 19 42  1  0
 23 43  1  0
 26 44  1  0
 26 45  1  0
 26 46  1  0
 27 47  1  0
 27 48  1  0
 28 49  1  0
 28 50  1  0
 28 51  1  0
 29 52  1  0
 29 53  1  0
 30 54  1  0
 30 55  1  0
 31 56  1  0
M  END
>  <Favorite_cresset>
false

>  <Protein_cresset>
sars_P

>  <MW_cresset>
428.5

>  <#Atoms_cresset>
32

>  <SlogP_cresset>
2.4

>  <TPSA_cresset>
82.6

>  <Flexibility_cresset>
2.9

>  <HBA_cresset>
7

>  <HBD_cresset>
1

>  <Rof5_cresset>
0

>  <Confs_cresset>
0

>  <Poses_cresset>
0

$$$$
predicted (38)
  xed2sdf           3D
 
 46 48  0  0  1  0  0  0  0  0999 V2000
   -8.3220    0.5670  -21.4090 O   0  0  0  0  0  0  0  0  0  0  0  0
   -5.9980   -0.4570  -17.8390 N   0  0  0  0  0  0  0  0  0  0  0  0
   -8.1620   -0.5500  -21.8640 C   0  0  0  0  0  0  0  0  0  0  0  0
   -6.6490   -1.0190  -18.8690 C   0  0  0  0  0  0  0  0  0  0  0  0
   -2.7370    1.3800  -20.8990 C   0  0  0  0  0  0  0  0  0  0  0  0
   -3.4230    0.8220  -21.9900 C   0  0  0  0  0  0  0  0  0  0  0  0
   -4.9000    0.2710  -18.0990 C   0  0  0  0  0  0  0  0  0  0  0  0
   -3.2290    1.2080  -19.5990 C   0  0  0  0  0  0  0  0  0  0  0  0
   -4.5930    0.0760  -21.7900 C   0  0  0  0  0  0  0  0  0  0  0  0
   -6.2470   -0.8670  -20.2040 C   0  0  0  0  0  0  0  0  0  0  0  0
   -4.3930    0.4540  -19.3920 C   0  0  0  0  0  0  0  0  0  0  0  0
   -5.0790   -0.1230  -20.4820 C   0  0  0  0  0  0  0  0  0  0  0  0
   -8.9070   -1.0570  -22.9370 N   0  0  0  0  0  0  0  0  0  0  0  0
   -7.1090   -1.5070  -21.2700 C   0  0  0  0  0  0  0  0  0  0  0  0
   -8.3650   -3.0010  -24.3730 C   0  0  0  0  0  0  0  0  0  0  0  0
   -9.3490    1.2500  -24.0240 C   0  0  0  0  0  0  0  0  0  0  0  0
  -13.0570   -2.1500  -22.8770 C   0  0  0  0  0  0  0  0  0  0  0  0
  -10.6330   -2.9320  -23.0490 C   0  0  0  0  0  0  0  0  0  0  0  0
  -11.2020   -0.4220  -23.3990 C   0  0  0  0  0  0  0  0  0  0  0  0
   -9.1330   -2.5190  -23.1280 C   0  0  0  0  0  0  0  0  0  0  0  0
   -9.7510   -0.2440  -23.8520 C   0  0  0  0  0  0  0  0  0  0  0  0
  -11.6690   -1.8960  -23.5600 C   0  0  0  0  0  0  0  0  0  0  0  0
   -7.5300   -1.6160  -18.6200 H   0  0  0  0  0  0  0  0  0  0  0  0
   -1.8390    1.9660  -21.0670 H   0  0  0  0  0  0  0  0  0  0  0  0
   -3.0530    0.9850  -22.9970 H   0  0  0  0  0  0  0  0  0  0  0  0
   -4.4450    0.7540  -17.2450 H   0  0  0  0  0  0  0  0  0  0  0  0
   -2.7120    1.6620  -18.7590 H   0  0  0  0  0  0  0  0  0  0  0  0
   -5.1110   -0.3310  -22.6560 H   0  0  0  0  0  0  0  0  0  0  0  0
   -7.6090   -2.3640  -20.8120 H   0  0  0  0  0  0  0  0  0  0  0  0
   -6.5090   -1.9370  -22.0710 H   0  0  0  0  0  0  0  0  0  0  0  0
   -7.3000   -2.8020  -24.2020 H   0  0  0  0  0  0  0  0  0  0  0  0
   -8.6510   -2.4650  -25.2840 H   0  0  0  0  0  0  0  0  0  0  0  0
   -8.4760   -4.0780  -24.5430 H   0  0  0  0  0  0  0  0  0  0  0  0
   -8.2580    1.3790  -24.0610 H   0  0  0  0  0  0  0  0  0  0  0  0
   -9.7450    1.6220  -24.9790 H   0  0  0  0  0  0  0  0  0  0  0  0
   -9.7540    1.8870  -23.2280 H   0  0  0  0  0  0  0  0  0  0  0  0
  -13.8730   -1.5630  -23.3240 H   0  0  0  0  0  0  0  0  0  0  0  0
  -13.0260   -1.8960  -21.8210 H   0  0  0  0  0  0  0  0  0  0  0  0
  -13.3440   -3.2120  -22.9170 H   0  0  0  0  0  0  0  0  0  0  0  0
  -10.8050   -3.8950  -23.5490 H   0  0  0  0  0  0  0  0  0  0  0  0
  -10.8510   -3.1200  -21.9920 H   0  0  0  0  0  0  0  0  0  0  0  0
  -11.8570    0.2470  -23.9630 H   0  0  0  0  0  0  0  0  0  0  0  0
  -11.2550   -0.1230  -22.3560 H   0  0  0  0  0  0  0  0  0  0  0  0
   -8.7070   -3.0910  -22.2990 H   0  0  0  0  0  0  0  0  0  0  0  0
   -9.6820   -0.6760  -24.8570 H   0  0  0  0  0  0  0  0  0  0  0  0
  -11.7610   -2.0650  -24.6360 H   0  0  0  0  0  0  0  0  0  0  0  0
  3  1  2  0
  4  2  2  0
  6  5  1  0
  7  2  1  0
  8  5  2  0
  9  6  2  0
 10  4  1  0
 11  7  2  0
 11  8  1  0
 12  9  1  0
 12 10  2  0
 12 11  1  0
 13  3  1  0
 14  3  1  0
 14 10  1  0
 20 13  1  0
 20 15  1  0
 20 18  1  0
 21 13  1  0
 21 16  1  0
 21 19  1  0
 22 17  1  0
 22 18  1  0
 22 19  1  0
  4 23  1  0
  5 24  1  0
  6 25  1  0
  7 26  1  0
  8 27  1  0
  9 28  1  0
 14 29  1  0
 14 30  1  0
 15 31  1  0
 15 32  1  0
 15 33  1  0
 16 34  1  0
 16 35  1  0
 16 36  1  0
 17 37  1  0
 17 38  1  0
 17 39  1  0
 18 40  1  0
 18 41  1  0
 19 42  1  0
 19 43  1  0
 20 44  1  0
 21 45  1  0
 22 46  1  0
M  END
>  <Favorite_cresset>
false

>  <Protein_cresset>
sars_P

>  <MW_cresset>
296.4

>  <#Atoms_cresset>
22

>  <SlogP_cresset>
3.8

>  <TPSA_cresset>
33.2

>  <Flexibility_cresset>
3.2

>  <HBA_cresset>
3

>  <HBD_cresset>
0

>  <Rof5_cresset>
0

>  <Confs_cresset>
0

>  <Poses_cresset>
0

$$$$
predicted (39)
  xed2sdf           3D
 
 41 45  0  0  1  0  0  0  0  0999 V2000
  -11.5770   -3.8880  -23.7910 O   0  0  0  0  0  0  0  0  0  0  0  0
   -7.4880    0.7720  -22.3270 O   0  0  0  0  0  0  0  0  0  0  0  0
   -6.7310   -3.6170  -21.3780 O   0  0  0  0  0  0  0  0  0  0  0  0
   -6.1780   -0.6370  -17.9840 N   0  0  0  0  0  0  0  0  0  0  0  0
  -11.3990   -2.7330  -23.4430 C   0  0  0  0  0  0  0  0  0  0  0  0
   -6.7660   -1.1640  -19.0770 C   0  0  0  0  0  0  0  0  0  0  0  0
   -2.6830    1.2260  -20.7590 C   0  0  0  0  0  0  0  0  0  0  0  0
   -3.2530    0.6290  -21.8920 C   0  0  0  0  0  0  0  0  0  0  0  0
   -5.0640    0.1050  -18.1320 C   0  0  0  0  0  0  0  0  0  0  0  0
   -3.2950    1.0720  -19.5070 C   0  0  0  0  0  0  0  0  0  0  0  0
   -4.4350   -0.1080  -21.7780 C   0  0  0  0  0  0  0  0  0  0  0  0
   -6.2740   -0.9500  -20.3720 C   0  0  0  0  0  0  0  0  0  0  0  0
   -7.1600   -2.6380  -21.9510 C   0  0  0  0  0  0  0  0  0  0  0  0
   -7.5690   -2.5650  -23.4120 C   0  0  0  0  0  0  0  0  0  0  0  0
   -7.3740   -0.4320  -22.4770 C   0  0  0  0  0  0  0  0  0  0  0  0
   -4.4610    0.3090  -19.3810 C   0  0  0  0  0  0  0  0  0  0  0  0
   -5.0570   -0.2520  -20.5230 C   0  0  0  0  0  0  0  0  0  0  0  0
  -10.1370   -2.1650  -23.4060 N   0  0  0  0  0  0  0  0  0  0  0  0
   -7.0180   -1.3400  -21.5100 N   0  0  0  0  0  0  0  0  0  0  0  0
   -7.5820   -1.1300  -23.6410 N   0  0  0  0  0  0  0  0  0  0  0  0
  -12.5590   -1.8290  -23.0270 C   0  0  0  0  0  0  0  0  0  0  0  0
   -9.9610   -0.7730  -23.9050 C   0  0  0  0  0  0  0  0  0  0  0  0
   -8.7850   -2.2260  -25.3100 C   0  0  0  0  0  0  0  0  0  0  0  0
   -8.6190   -0.8510  -24.6370 C   0  0  0  0  0  0  0  0  0  0  0  0
   -8.9710   -2.9360  -23.9590 C   0  0  0  0  0  0  0  0  0  0  0  0
   -7.6740   -1.7400  -18.9060 H   0  0  0  0  0  0  0  0  0  0  0  0
   -1.7710    1.8060  -20.8500 H   0  0  0  0  0  0  0  0  0  0  0  0
   -2.7860    0.7290  -22.8640 H   0  0  0  0  0  0  0  0  0  0  0  0
   -4.6410    0.5430  -17.2280 H   0  0  0  0  0  0  0  0  0  0  0  0
   -2.8590    1.5350  -18.6340 H   0  0  0  0  0  0  0  0  0  0  0  0
   -4.8430   -0.5770  -22.6680 H   0  0  0  0  0  0  0  0  0  0  0  0
   -6.7720   -3.0410  -24.0070 H   0  0  0  0  0  0  0  0  0  0  0  0
  -13.4000   -2.4410  -22.6800 H   0  0  0  0  0  0  0  0  0  0  0  0
  -12.2400   -1.1470  -22.2360 H   0  0  0  0  0  0  0  0  0  0  0  0
  -12.8660   -1.2110  -23.8810 H   0  0  0  0  0  0  0  0  0  0  0  0
  -10.7420   -0.5350  -24.6390 H   0  0  0  0  0  0  0  0  0  0  0  0
   -9.9700   -0.0320  -23.0920 H   0  0  0  0  0  0  0  0  0  0  0  0
   -7.8870   -2.5210  -25.8730 H   0  0  0  0  0  0  0  0  0  0  0  0
   -9.6780   -2.3120  -25.9390 H   0  0  0  0  0  0  0  0  0  0  0  0
   -8.3920   -0.0080  -25.3090 H   0  0  0  0  0  0  0  0  0  0  0  0
   -9.1520   -4.0130  -24.0220 H   0  0  0  0  0  0  0  0  0  0  0  0
  5  1  2  0
  6  4  2  0
  8  7  1  0
  9  4  1  0
 10  7  2  0
 11  8  2  0
 12  6  1  0
 13  3  2  0
 14 13  1  0
 15  2  2  0
 16  9  2  0
 16 10  1  0
 17 11  1  0
 17 12  2  0
 17 16  1  0
 18  5  1  0
 19 12  1  0
 19 13  1  0
 19 15  1  0
 20 14  1  0
 20 15  1  0
 21  5  1  0
 22 18  1  0
 24 20  1  0
 24 22  1  0
 24 23  1  0
 25 14  1  0
 25 18  1  0
 25 23  1  0
  6 26  1  0
  7 27  1  0
  8 28  1  0
  9 29  1  0
 10 30  1  0
 11 31  1  0
 14 32  1  0
 21 33  1  0
 21 34  1  0
 21 35  1  0
 22 36  1  0
 22 37  1  0
 23 38  1  0
 23 39  1  0
 24 40  1  0
 25 41  1  0
M  END
>  <Favorite_cresset>
false

>  <Protein_cresset>
sars_P

>  <MW_cresset>
336.3

>  <#Atoms_cresset>
25

>  <SlogP_cresset>
1.4

>  <TPSA_cresset>
73.8

>  <Flexibility_cresset>
1.3

>  <HBA_cresset>
7

>  <HBD_cresset>
0

>  <Rof5_cresset>
0

>  <Confs_cresset>
0

>  <Poses_cresset>
0

$$$$
predicted (40)
  xed2sdf           3D
 
 40 42  0  0  0  0  0  0  0  0999 V2000
   -8.3220    0.5670  -21.3100 O   0  0  0  0  0  0  0  0  0  0  0  0
   -6.0570   -0.5760  -17.8730 N   0  0  0  0  0  0  0  0  0  0  0  0
   -8.2180   -0.5210  -21.8410 C   0  0  0  0  0  0  0  0  0  0  0  0
   -6.7070   -1.1370  -18.9070 C   0  0  0  0  0  0  0  0  0  0  0  0
   -2.9020    1.4430  -20.9100 C   0  0  0  0  0  0  0  0  0  0  0  0
   -3.6000    0.9270  -22.0070 C   0  0  0  0  0  0  0  0  0  0  0  0
   -4.9760    0.1710  -18.1210 C   0  0  0  0  0  0  0  0  0  0  0  0
   -3.3620    1.1950  -19.6120 C   0  0  0  0  0  0  0  0  0  0  0  0
   -4.7450    0.1370  -21.8120 C   0  0  0  0  0  0  0  0  0  0  0  0
   -6.3210   -0.9670  -20.2420 C   0  0  0  0  0  0  0  0  0  0  0  0
   -4.4970    0.3970  -19.4140 C   0  0  0  0  0  0  0  0  0  0  0  0
   -5.1860   -0.1640  -20.5070 C   0  0  0  0  0  0  0  0  0  0  0  0
   -8.9810   -0.8630  -22.9580 N   0  0  0  0  0  0  0  0  0  0  0  0
   -7.2050   -1.5670  -21.3320 C   0  0  0  0  0  0  0  0  0  0  0  0
  -13.0300   -2.2670  -22.8700 C   0  0  0  0  0  0  0  0  0  0  0  0
   -9.9540    0.0810  -23.5490 C   0  0  0  0  0  0  0  0  0  0  0  0
   -9.1470   -2.2410  -23.4590 C   0  0  0  0  0  0  0  0  0  0  0  0
  -11.3960   -0.3790  -23.2640 C   0  0  0  0  0  0  0  0  0  0  0  0
  -10.5420   -2.7970  -23.0940 C   0  0  0  0  0  0  0  0  0  0  0  0
  -11.6940   -1.8670  -23.5620 C   0  0  0  0  0  0  0  0  0  0  0  0
   -7.5990   -1.7070  -18.6570 H   0  0  0  0  0  0  0  0  0  0  0  0
   -2.0100    2.0420  -21.0620 H   0  0  0  0  0  0  0  0  0  0  0  0
   -3.2550    1.1460  -23.0120 H   0  0  0  0  0  0  0  0  0  0  0  0
   -4.5090    0.6290  -17.2550 H   0  0  0  0  0  0  0  0  0  0  0  0
   -2.8400    1.6240  -18.7680 H   0  0  0  0  0  0  0  0  0  0  0  0
   -5.2850   -0.2220  -22.6790 H   0  0  0  0  0  0  0  0  0  0  0  0
   -7.7700   -2.4220  -20.9320 H   0  0  0  0  0  0  0  0  0  0  0  0
   -6.5960   -1.9380  -22.1680 H   0  0  0  0  0  0  0  0  0  0  0  0
  -13.8940   -1.7380  -23.2940 H   0  0  0  0  0  0  0  0  0  0  0  0
  -12.9790   -2.0100  -21.8100 H   0  0  0  0  0  0  0  0  0  0  0  0
  -13.2230   -3.3450  -22.9490 H   0  0  0  0  0  0  0  0  0  0  0  0
   -9.8180    1.0860  -23.1320 H   0  0  0  0  0  0  0  0  0  0  0  0
   -9.7770    0.1680  -24.6240 H   0  0  0  0  0  0  0  0  0  0  0  0
   -8.3920   -2.9080  -23.0350 H   0  0  0  0  0  0  0  0  0  0  0  0
   -9.0100   -2.2420  -24.5490 H   0  0  0  0  0  0  0  0  0  0  0  0
  -12.1310    0.2780  -23.7420 H   0  0  0  0  0  0  0  0  0  0  0  0
  -11.5340   -0.2580  -22.2060 H   0  0  0  0  0  0  0  0  0  0  0  0
  -10.6010   -2.9220  -22.0020 H   0  0  0  0  0  0  0  0  0  0  0  0
  -10.6600   -3.7880  -23.5540 H   0  0  0  0  0  0  0  0  0  0  0  0
  -11.7860   -1.9720  -24.6480 H   0  0  0  0  0  0  0  0  0  0  0  0
  3  1  2  0
  4  2  2  0
  6  5  1  0
  7  2  1  0
  8  5  2  0
  9  6  2  0
 10  4  1  0
 11  7  2  0
 11  8  1  0
 12  9  1  0
 12 10  2  0
 12 11  1  0
 13  3  1  0
 14  3  1  0
 14 10  1  0
 16 13  1  0
 17 13  1  0
 18 16  1  0
 19 17  1  0
 20 15  1  0
 20 18  1  0
 20 19  1  0
  4 21  1  0
  5 22  1  0
  6 23  1  0
  7 24  1  0
  8 25  1  0
  9 26  1  0
 14 27  1  0
 14 28  1  0
 15 29  1  0
 15 30  1  0
 15 31  1  0
 16 32  1  0
 16 33  1  0
 17 34  1  0
 17 35  1  0
 18 36  1  0
 18 37  1  0
 19 38  1  0
 19 39  1  0
 20 40  1  0
M  END
>  <Favorite_cresset>
false

>  <Protein_cresset>
sars_P

>  <MW_cresset>
268.4

>  <#Atoms_cresset>
20

>  <SlogP_cresset>
3.0

>  <TPSA_cresset>
33.2

>  <Flexibility_cresset>
3.2

>  <HBA_cresset>
3

>  <HBD_cresset>
0

>  <Rof5_cresset>
0

>  <Confs_cresset>
0

>  <Poses_cresset>
0

$$$$
predicted (41)
  xed2sdf           3D
 
 67 71  0  0  1  0  0  0  0  0999 V2000
  -10.8870    2.3520  -24.2900 O   0  0  0  0  0  0  0  0  0  0  0  0
   -5.7680    2.0500  -24.6950 O   0  0  0  0  0  0  0  0  0  0  0  0
   -8.6900    0.4650  -21.3790 O   0  0  0  0  0  0  0  0  0  0  0  0
   -8.0140   -5.8810  -23.5630 O   0  0  0  0  0  0  0  0  0  0  0  0
   -5.8950   -4.9130  -24.4350 O   0  0  0  0  0  0  0  0  0  0  0  0
   -6.1850   -0.5810  -18.0410 N   0  0  0  0  0  0  0  0  0  0  0  0
  -10.3650    1.2590  -24.1220 C   0  0  0  0  0  0  0  0  0  0  0  0
   -6.8770    2.3670  -24.2990 C   0  0  0  0  0  0  0  0  0  0  0  0
   -8.2900   -0.5380  -21.9300 C   0  0  0  0  0  0  0  0  0  0  0  0
   -6.8250   -1.0600  -19.1260 C   0  0  0  0  0  0  0  0  0  0  0  0
  -13.3420   -0.8480  -22.9750 C   0  0  0  0  0  0  0  0  0  0  0  0
  -12.5690    0.1960  -23.4910 C   0  0  0  0  0  0  0  0  0  0  0  0
  -11.3120   -2.0970  -22.5020 C   0  0  0  0  0  0  0  0  0  0  0  0
   -2.7340    1.2350  -20.9100 C   0  0  0  0  0  0  0  0  0  0  0  0
   -3.4060    0.7510  -22.0410 C   0  0  0  0  0  0  0  0  0  0  0  0
  -12.7090   -1.9840  -22.4710 C   0  0  0  0  0  0  0  0  0  0  0  0
  -11.1560    0.0950  -23.5570 C   0  0  0  0  0  0  0  0  0  0  0  0
  -10.5060   -1.0800  -23.0740 C   0  0  0  0  0  0  0  0  0  0  0  0
   -5.0360    0.0970  -18.2180 C   0  0  0  0  0  0  0  0  0  0  0  0
   -3.2790    1.0380  -19.6320 C   0  0  0  0  0  0  0  0  0  0  0  0
   -4.6150    0.0560  -21.9040 C   0  0  0  0  0  0  0  0  0  0  0  0
   -6.3540   -0.8750  -20.4360 C   0  0  0  0  0  0  0  0  0  0  0  0
   -4.4720    0.3120  -19.4850 C   0  0  0  0  0  0  0  0  0  0  0  0
   -5.1410   -0.1860  -20.6220 C   0  0  0  0  0  0  0  0  0  0  0  0
   -7.0810    3.0340  -23.1030 N   0  0  0  0  0  0  0  0  0  0  0  0
   -7.1740   -1.2420  -21.5360 N   0  0  0  0  0  0  0  0  0  0  0  0
   -9.0220    1.0210  -24.4280 N   0  0  0  0  0  0  0  0  0  0  0  0
   -7.6960   -5.6230  -26.0640 N   0  0  0  0  0  0  0  0  0  0  0  0
   -6.0240    3.4520  -22.1700 C   0  0  0  0  0  0  0  0  0  0  0  0
   -7.0950   -4.9340  -27.2280 C   0  0  0  0  0  0  0  0  0  0  0  0
   -9.0750   -6.1020  -26.3120 C   0  0  0  0  0  0  0  0  0  0  0  0
   -8.1620    2.0490  -25.0950 C   0  0  0  0  0  0  0  0  0  0  0  0
   -6.9820   -2.4640  -22.3150 C   0  0  0  0  0  0  0  0  0  0  0  0
   -8.4560   -0.3460  -24.3830 C   0  0  0  0  0  0  0  0  0  0  0  0
   -8.1160   -3.3300  -24.5130 C   0  0  0  0  0  0  0  0  0  0  0  0
   -8.2950   -2.6370  -23.1180 C   0  0  0  0  0  0  0  0  0  0  0  0
   -8.9470   -1.1810  -23.1540 C   0  0  0  0  0  0  0  0  0  0  0  0
   -7.3410   -5.0180  -24.5200 S   0  0  0  0  0  0  0  0  0  0  0  0
  -13.4560   -2.9780  -21.9490 F   0  0  0  0  0  0  0  0  0  0  0  0
   -7.7640   -1.5780  -18.9380 H   0  0  0  0  0  0  0  0  0  0  0  0
  -14.4250   -0.7710  -22.9390 H   0  0  0  0  0  0  0  0  0  0  0  0
  -13.0880    1.0790  -23.8550 H   0  0  0  0  0  0  0  0  0  0  0  0
  -10.8870   -2.9920  -22.0690 H   0  0  0  0  0  0  0  0  0  0  0  0
   -1.8000    1.7770  -21.0280 H   0  0  0  0  0  0  0  0  0  0  0  0
   -2.9960    0.9240  -23.0300 H   0  0  0  0  0  0  0  0  0  0  0  0
   -4.5700    0.4940  -17.3190 H   0  0  0  0  0  0  0  0  0  0  0  0
   -2.7760    1.4500  -18.7650 H   0  0  0  0  0  0  0  0  0  0  0  0
   -5.1330   -0.2830  -22.7960 H   0  0  0  0  0  0  0  0  0  0  0  0
   -8.0360    3.2780  -22.8640 H   0  0  0  0  0  0  0  0  0  0  0  0
   -5.0610    3.5700  -22.6850 H   0  0  0  0  0  0  0  0  0  0  0  0
   -5.9140    2.6900  -21.3880 H   0  0  0  0  0  0  0  0  0  0  0  0
   -6.3080    4.4100  -21.7120 H   0  0  0  0  0  0  0  0  0  0  0  0
   -6.0020   -4.8960  -27.1120 H   0  0  0  0  0  0  0  0  0  0  0  0
   -7.3200   -5.4730  -28.1600 H   0  0  0  0  0  0  0  0  0  0  0  0
   -7.4870   -3.9110  -27.3090 H   0  0  0  0  0  0  0  0  0  0  0  0
   -9.7990   -5.2940  -26.1330 H   0  0  0  0  0  0  0  0  0  0  0  0
   -9.1900   -6.4490  -27.3490 H   0  0  0  0  0  0  0  0  0  0  0  0
   -9.3040   -6.9440  -25.6430 H   0  0  0  0  0  0  0  0  0  0  0  0
   -7.8660    1.6960  -26.0920 H   0  0  0  0  0  0  0  0  0  0  0  0
   -8.7140    2.9900  -25.2090 H   0  0  0  0  0  0  0  0  0  0  0  0
   -6.1230   -2.3360  -22.9780 H   0  0  0  0  0  0  0  0  0  0  0  0
   -6.7920   -3.3300  -21.6690 H   0  0  0  0  0  0  0  0  0  0  0  0
   -7.3570   -0.2810  -24.3570 H   0  0  0  0  0  0  0  0  0  0  0  0
   -8.7490   -0.8400  -25.3180 H   0  0  0  0  0  0  0  0  0  0  0  0
   -9.1170   -3.4460  -24.9490 H   0  0  0  0  0  0  0  0  0  0  0  0
   -7.4970   -2.7120  -25.1780 H   0  0  0  0  0  0  0  0  0  0  0  0
   -8.9140   -3.2980  -22.5090 H   0  0  0  0  0  0  0  0  0  0  0  0
  7  1  2  0
  8  2  2  0
  9  3  2  0
 10  6  2  0
 12 11  1  0
 15 14  1  0
 16 11  2  0
 16 13  1  0
 17  7  1  0
 17 12  2  0
 18 13  2  0
 18 17  1  0
 19  6  1  0
 20 14  2  0
 21 15  2  0
 22 10  1  0
 23 19  2  0
 23 20  1  0
 24 21  1  0
 24 22  2  0
 24 23  1  0
 25  8  1  0
 26  9  1  0
 26 22  1  0
 27  7  1  0
 29 25  1  0
 30 28  1  0
 31 28  1  0
 32  8  1  0
 32 27  1  0
 33 26  1  0
 34 27  1  0
 36 33  1  0
 36 35  1  0
 37  9  1  0
 37 18  1  0
 37 34  1  0
 37 36  1  0
 38  4  2  0
 38  5  2  0
 38 28  1  0
 38 35  1  0
 39 16  1  0
 10 40  1  0
 11 41  1  0
 12 42  1  0
 13 43  1  0
 14 44  1  0
 15 45  1  0
 19 46  1  0
 20 47  1  0
 21 48  1  0
 25 49  1  0
 29 50  1  0
 29 51  1  0
 29 52  1  0
 30 53  1  0
 30 54  1  0
 30 55  1  0
 31 56  1  0
 31 57  1  0
 31 58  1  0
 32 59  1  0
 32 60  1  0
 33 61  1  0
 33 62  1  0
 34 63  1  0
 34 64  1  0
 35 65  1  0
 35 66  1  0
 36 67  1  0
M  END
>  <Favorite_cresset>
false

>  <Protein_cresset>
sars_P

>  <MW_cresset>
553.6

>  <#Atoms_cresset>
39

>  <SlogP_cresset>
1.6

>  <TPSA_cresset>
120.0

>  <Flexibility_cresset>
5.9

>  <HBA_cresset>
10

>  <HBD_cresset>
1

>  <Rof5_cresset>
1

>  <Confs_cresset>
0

>  <Poses_cresset>
0

$$$$
predicted (42)
  xed2sdf           3D
 
 40 43  0  0  1  0  0  0  0  0999 V2000
  -12.5150   -2.9610  -22.2580 Cl  0  0  0  0  0  0  0  0  0  0  0  0
   -8.6510   -0.4880  -20.9640 O   0  0  0  0  0  0  0  0  0  0  0  0
   -9.6200    1.8520  -26.2480 O   0  0  0  0  0  0  0  0  0  0  0  0
  -10.5490    3.3780  -24.4450 O   0  0  0  0  0  0  0  0  0  0  0  0
   -6.0660   -0.6360  -18.0410 N   0  0  0  0  0  0  0  0  0  0  0  0
   -2.9880    1.3090  -20.9070 N   0  0  0  0  0  0  0  0  0  0  0  0
   -7.8780   -0.6580  -21.8850 C   0  0  0  0  0  0  0  0  0  0  0  0
   -6.5180   -1.1510  -19.2110 C   0  0  0  0  0  0  0  0  0  0  0  0
  -12.4890   -0.4500  -23.1860 C   0  0  0  0  0  0  0  0  0  0  0  0
  -10.3280   -1.5470  -23.1200 C   0  0  0  0  0  0  0  0  0  0  0  0
  -11.9060    0.6700  -23.7770 C   0  0  0  0  0  0  0  0  0  0  0  0
  -11.7150   -1.5770  -22.9240 C   0  0  0  0  0  0  0  0  0  0  0  0
   -9.7090   -0.3540  -23.5590 C   0  0  0  0  0  0  0  0  0  0  0  0
  -10.5260    0.7010  -24.0190 C   0  0  0  0  0  0  0  0  0  0  0  0
   -4.9670    0.1470  -18.0590 C   0  0  0  0  0  0  0  0  0  0  0  0
   -3.1990    1.2360  -19.5910 C   0  0  0  0  0  0  0  0  0  0  0  0
   -5.9190   -0.8750  -20.4710 C   0  0  0  0  0  0  0  0  0  0  0  0
   -4.2940    0.3870  -19.2530 C   0  0  0  0  0  0  0  0  0  0  0  0
   -4.7430   -0.0970  -20.4300 C   0  0  0  0  0  0  0  0  0  0  0  0
   -6.6000   -1.1540  -21.6830 N   0  0  0  0  0  0  0  0  0  0  0  0
   -8.2470    2.2720  -24.2060 N   0  0  0  0  0  0  0  0  0  0  0  0
   -3.9790    0.4830  -21.4410 N   0  0  0  0  0  0  0  0  0  0  0  0
   -4.1690    0.4400  -22.8980 C   0  0  0  0  0  0  0  0  0  0  0  0
   -7.9720    1.4410  -23.0450 C   0  0  0  0  0  0  0  0  0  0  0  0
   -8.2240   -0.0960  -23.2680 C   0  0  0  0  0  0  0  0  0  0  0  0
   -9.8140    2.1730  -24.8320 S   0  0  0  0  0  0  0  0  0  0  0  0
   -7.4480   -1.7200  -19.1360 H   0  0  0  0  0  0  0  0  0  0  0  0
  -13.5510   -0.4430  -22.9590 H   0  0  0  0  0  0  0  0  0  0  0  0
   -9.7370   -2.4000  -22.8160 H   0  0  0  0  0  0  0  0  0  0  0  0
  -12.5190    1.5260  -24.0410 H   0  0  0  0  0  0  0  0  0  0  0  0
   -4.6720    0.6210  -17.1280 H   0  0  0  0  0  0  0  0  0  0  0  0
   -2.5670    1.8120  -18.9340 H   0  0  0  0  0  0  0  0  0  0  0  0
   -6.0100   -1.3360  -22.4880 H   0  0  0  0  0  0  0  0  0  0  0  0
   -7.5830    2.0900  -24.9570 H   0  0  0  0  0  0  0  0  0  0  0  0
   -5.2280    0.3240  -23.1400 H   0  0  0  0  0  0  0  0  0  0  0  0
   -3.5900   -0.3870  -23.3250 H   0  0  0  0  0  0  0  0  0  0  0  0
   -3.8240    1.3860  -23.3340 H   0  0  0  0  0  0  0  0  0  0  0  0
   -6.9430    1.6080  -22.7130 H   0  0  0  0  0  0  0  0  0  0  0  0
   -8.6390    1.8020  -22.2460 H   0  0  0  0  0  0  0  0  0  0  0  0
   -7.5850   -0.5400  -24.0490 H   0  0  0  0  0  0  0  0  0  0  0  0
  7  2  2  0
  8  5  2  0
 11  9  2  0
 12  1  1  0
 12  9  1  0
 12 10  2  0
 13 10  1  0
 14 11  1  0
 14 13  2  0
 15  5  1  0
 16  6  2  0
 17  8  1  0
 18 15  2  0
 18 16  1  0
 19 17  2  0
 19 18  1  0
 20  7  1  0
 20 17  1  0
 22  6  1  0
 22 19  1  0
 23 22  1  0
 24 21  1  0
 25  7  1  0
 25 13  1  0
 25 24  1  0
 26  3  2  0
 26  4  2  0
 26 14  1  0
 26 21  1  0
  8 27  1  0
  9 28  1  0
 10 29  1  0
 11 30  1  0
 15 31  1  0
 16 32  1  0
 20 33  1  0
 21 34  1  0
 23 35  1  0
 23 36  1  0
 23 37  1  0
 24 38  1  0
 24 39  1  0
 25 40  1  0
M  END
>  <Favorite_cresset>
false

>  <Protein_cresset>
sars_P

>  <MW_cresset>
391.8

>  <#Atoms_cresset>
26

>  <SlogP_cresset>
1.7

>  <TPSA_cresset>
106.0

>  <Flexibility_cresset>
1.6

>  <HBA_cresset>
8

>  <HBD_cresset>
2

>  <Rof5_cresset>
0

>  <Confs_cresset>
0

>  <Poses_cresset>
0

$$$$
predicted (43)
  xed2sdf           3D
 
 67 72  0  0  1  0  0  0  0  0999 V2000
  -13.7760   -2.9400  -21.7060 Cl  0  0  0  0  0  0  0  0  0  0  0  0
  -10.9400    2.5580  -24.3210 O   0  0  0  0  0  0  0  0  0  0  0  0
   -5.8340    2.4620  -24.7260 O   0  0  0  0  0  0  0  0  0  0  0  0
   -8.6400    0.7410  -21.3840 O   0  0  0  0  0  0  0  0  0  0  0  0
   -6.9050   -6.3260  -27.5780 N   0  0  0  0  0  0  0  0  0  0  0  0
   -6.1420   -0.5450  -17.9900 N   0  0  0  0  0  0  0  0  0  0  0  0
   -9.0470   -5.1080  -26.7130 S   0  0  0  0  0  0  0  0  0  0  0  0
  -10.4060    1.4790  -24.1240 C   0  0  0  0  0  0  0  0  0  0  0  0
   -6.9570    2.6880  -24.3050 C   0  0  0  0  0  0  0  0  0  0  0  0
   -8.3130   -0.3090  -21.8940 C   0  0  0  0  0  0  0  0  0  0  0  0
   -8.1750   -6.0990  -27.8660 C   0  0  0  0  0  0  0  0  0  0  0  0
   -6.8060   -0.9860  -19.0760 C   0  0  0  0  0  0  0  0  0  0  0  0
   -6.5630   -5.7140  -26.3840 C   0  0  0  0  0  0  0  0  0  0  0  0
   -7.5830   -5.0160  -25.7550 C   0  0  0  0  0  0  0  0  0  0  0  0
  -13.4040   -0.6050  -23.0390 C   0  0  0  0  0  0  0  0  0  0  0  0
  -12.6150    0.4220  -23.5600 C   0  0  0  0  0  0  0  0  0  0  0  0
  -11.3940   -1.8450  -22.4790 C   0  0  0  0  0  0  0  0  0  0  0  0
   -2.8210    1.4990  -20.8540 C   0  0  0  0  0  0  0  0  0  0  0  0
   -3.5280    1.0720  -21.9890 C   0  0  0  0  0  0  0  0  0  0  0  0
  -12.7910   -1.7210  -22.4770 C   0  0  0  0  0  0  0  0  0  0  0  0
  -11.2040    0.3190  -23.5700 C   0  0  0  0  0  0  0  0  0  0  0  0
  -10.5690   -0.8360  -23.0430 C   0  0  0  0  0  0  0  0  0  0  0  0
   -5.0170    0.1700  -18.1640 C   0  0  0  0  0  0  0  0  0  0  0  0
   -3.3140    1.2110  -19.5720 C   0  0  0  0  0  0  0  0  0  0  0  0
   -4.7170    0.3430  -21.8510 C   0  0  0  0  0  0  0  0  0  0  0  0
   -6.3850   -0.7180  -20.3910 C   0  0  0  0  0  0  0  0  0  0  0  0
   -4.4940    0.4620  -19.4320 C   0  0  0  0  0  0  0  0  0  0  0  0
   -5.1960    0.0150  -20.5700 C   0  0  0  0  0  0  0  0  0  0  0  0
   -7.1860    3.3420  -23.1030 N   0  0  0  0  0  0  0  0  0  0  0  0
   -7.4970   -4.2810  -24.5700 N   0  0  0  0  0  0  0  0  0  0  0  0
   -7.2240   -1.0570  -21.4920 N   0  0  0  0  0  0  0  0  0  0  0  0
   -9.0560    1.2540  -24.4030 N   0  0  0  0  0  0  0  0  0  0  0  0
   -5.1580   -5.7930  -25.8530 C   0  0  0  0  0  0  0  0  0  0  0  0
   -6.1400    3.8850  -22.2150 C   0  0  0  0  0  0  0  0  0  0  0  0
   -8.2230    2.2890  -25.0920 C   0  0  0  0  0  0  0  0  0  0  0  0
   -8.4520   -3.1670  -24.3900 C   0  0  0  0  0  0  0  0  0  0  0  0
   -7.0580   -2.2560  -22.3190 C   0  0  0  0  0  0  0  0  0  0  0  0
   -8.4710   -0.1050  -24.3160 C   0  0  0  0  0  0  0  0  0  0  0  0
   -8.4180   -2.4090  -23.0270 C   0  0  0  0  0  0  0  0  0  0  0  0
   -9.0120   -0.9390  -23.0980 C   0  0  0  0  0  0  0  0  0  0  0  0
   -8.6880   -6.4750  -28.7450 H   0  0  0  0  0  0  0  0  0  0  0  0
   -7.7190   -1.5430  -18.8780 H   0  0  0  0  0  0  0  0  0  0  0  0
  -14.4860   -0.5210  -23.0300 H   0  0  0  0  0  0  0  0  0  0  0  0
  -13.1150    1.3020  -23.9530 H   0  0  0  0  0  0  0  0  0  0  0  0
  -10.9810   -2.7330  -22.0210 H   0  0  0  0  0  0  0  0  0  0  0  0
   -1.9010    2.0660  -20.9690 H   0  0  0  0  0  0  0  0  0  0  0  0
   -3.1580    1.3160  -22.9800 H   0  0  0  0  0  0  0  0  0  0  0  0
   -4.5370    0.5380  -17.2620 H   0  0  0  0  0  0  0  0  0  0  0  0
   -2.7810    1.5750  -18.7000 H   0  0  0  0  0  0  0  0  0  0  0  0
   -5.2590    0.0370  -22.7400 H   0  0  0  0  0  0  0  0  0  0  0  0
   -8.1500    3.4990  -22.8410 H   0  0  0  0  0  0  0  0  0  0  0  0
   -6.5650   -4.1670  -24.1920 H   0  0  0  0  0  0  0  0  0  0  0  0
   -4.4270   -5.6460  -26.6590 H   0  0  0  0  0  0  0  0  0  0  0  0
   -4.9760   -5.0200  -25.1000 H   0  0  0  0  0  0  0  0  0  0  0  0
   -4.9680   -6.7710  -25.3940 H   0  0  0  0  0  0  0  0  0  0  0  0
   -5.2220    4.1010  -22.7740 H   0  0  0  0  0  0  0  0  0  0  0  0
   -5.9060    3.1590  -21.4230 H   0  0  0  0  0  0  0  0  0  0  0  0
   -6.5160    4.8160  -21.7680 H   0  0  0  0  0  0  0  0  0  0  0  0
   -7.9290    1.9350  -26.0900 H   0  0  0  0  0  0  0  0  0  0  0  0
   -8.8070    3.2080  -25.2170 H   0  0  0  0  0  0  0  0  0  0  0  0
   -9.4730   -3.5590  -24.4830 H   0  0  0  0  0  0  0  0  0  0  0  0
   -8.2710   -2.4810  -25.2210 H   0  0  0  0  0  0  0  0  0  0  0  0
   -6.2550   -2.1010  -23.0420 H   0  0  0  0  0  0  0  0  0  0  0  0
   -6.8190   -3.1390  -21.7170 H   0  0  0  0  0  0  0  0  0  0  0  0
   -7.3770   -0.0280  -24.2330 H   0  0  0  0  0  0  0  0  0  0  0  0
   -8.6940   -0.5920  -25.2690 H   0  0  0  0  0  0  0  0  0  0  0  0
   -8.9900   -3.0100  -22.3100 H   0  0  0  0  0  0  0  0  0  0  0  0
  8  2  2  0
  9  3  2  0
 10  4  2  0
 11  5  2  0
 11  7  1  0
 12  6  2  0
 13  5  1  0
 14  7  1  0
 14 13  2  0
 16 15  1  0
 19 18  1  0
 20  1  1  0
 20 15  2  0
 20 17  1  0
 21  8  1  0
 21 16  2  0
 22 17  2  0
 22 21  1  0
 23  6  1  0
 24 18  2  0
 25 19  2  0
 26 12  1  0
 27 23  2  0
 27 24  1  0
 28 25  1  0
 28 26  2  0
 28 27  1  0
 29  9  1  0
 30 14  1  0
 31 10  1  0
 31 26  1  0
 32  8  1  0
 33 13  1  0
 34 29  1  0
 35  9  1  0
 35 32  1  0
 36 30  1  0
 37 31  1  0
 38 32  1  0
 39 36  1  0
 39 37  1  0
 40 10  1  0
 40 22  1  0
 40 38  1  0
 40 39  1  0
 11 41  1  0
 12 42  1  0
 15 43  1  0
 16 44  1  0
 17 45  1  0
 18 46  1  0
 19 47  1  0
 23 48  1  0
 24 49  1  0
 25 50  1  0
 29 51  1  0
 30 52  1  0
 33 53  1  0
 33 54  1  0
 33 55  1  0
 34 56  1  0
 34 57  1  0
 34 58  1  0
 35 59  1  0
 35 60  1  0
 36 61  1  0
 36 62  1  0
 37 63  1  0
 37 64  1  0
 38 65  1  0
 38 66  1  0
 39 67  1  0
M  END
>  <Favorite_cresset>
false

>  <Protein_cresset>
sars_P

>  <MW_cresset>
575.1

>  <#Atoms_cresset>
40

>  <SlogP_cresset>
3.9

>  <TPSA_cresset>
107.5

>  <Flexibility_cresset>
5.1

>  <HBA_cresset>
9

>  <HBD_cresset>
2

>  <Rof5_cresset>
1

>  <Confs_cresset>
0

>  <Poses_cresset>
0

$$$$
predicted (44)
  xed2sdf           3D
 
 60 64  0  0  1  0  0  0  0  0999 V2000
  -13.5840   -2.9760  -21.8260 Cl  0  0  0  0  0  0  0  0  0  0  0  0
  -10.6860    2.5980  -24.2820 O   0  0  0  0  0  0  0  0  0  0  0  0
   -5.6560    2.7190  -24.4880 O   0  0  0  0  0  0  0  0  0  0  0  0
   -8.4920    0.7060  -21.3720 O   0  0  0  0  0  0  0  0  0  0  0  0
   -6.0680   -0.6000  -17.9470 N   0  0  0  0  0  0  0  0  0  0  0  0
   -7.8300   -4.4220  -24.5120 O   0  0  0  0  0  0  0  0  0  0  0  0
  -10.1600    1.5080  -24.1270 C   0  0  0  0  0  0  0  0  0  0  0  0
   -6.8370    2.8380  -24.1970 C   0  0  0  0  0  0  0  0  0  0  0  0
   -8.1410   -0.3320  -21.9000 C   0  0  0  0  0  0  0  0  0  0  0  0
   -6.7300   -1.0270  -19.0400 C   0  0  0  0  0  0  0  0  0  0  0  0
  -13.1580   -0.6170  -23.0600 C   0  0  0  0  0  0  0  0  0  0  0  0
  -12.3670    0.4230  -23.5550 C   0  0  0  0  0  0  0  0  0  0  0  0
  -11.1440   -1.8710  -22.5360 C   0  0  0  0  0  0  0  0  0  0  0  0
   -2.7610    1.4840  -20.8100 C   0  0  0  0  0  0  0  0  0  0  0  0
   -3.4600    1.0600  -21.9480 C   0  0  0  0  0  0  0  0  0  0  0  0
  -12.5500   -1.7580  -22.5460 C   0  0  0  0  0  0  0  0  0  0  0  0
  -10.9560    0.3240  -23.5950 C   0  0  0  0  0  0  0  0  0  0  0  0
  -10.3220   -0.8520  -23.1060 C   0  0  0  0  0  0  0  0  0  0  0  0
   -4.9410    0.1130  -18.1180 C   0  0  0  0  0  0  0  0  0  0  0  0
   -3.2530    1.1880  -19.5320 C   0  0  0  0  0  0  0  0  0  0  0  0
   -4.6410    0.3220  -21.8020 C   0  0  0  0  0  0  0  0  0  0  0  0
   -6.2940   -0.7650  -20.3410 C   0  0  0  0  0  0  0  0  0  0  0  0
   -4.4220    0.4230  -19.3830 C   0  0  0  0  0  0  0  0  0  0  0  0
   -5.1150   -0.0210  -20.5250 C   0  0  0  0  0  0  0  0  0  0  0  0
   -7.2620    3.4690  -23.0370 N   0  0  0  0  0  0  0  0  0  0  0  0
   -7.1120   -1.1210  -21.4340 N   0  0  0  0  0  0  0  0  0  0  0  0
   -8.8210    1.2890  -24.4420 N   0  0  0  0  0  0  0  0  0  0  0  0
   -8.1920   -5.0280  -25.7740 C   0  0  0  0  0  0  0  0  0  0  0  0
   -6.3780    4.2760  -22.1680 C   0  0  0  0  0  0  0  0  0  0  0  0
   -7.9690    2.3260  -25.1130 C   0  0  0  0  0  0  0  0  0  0  0  0
   -7.9430   -2.9860  -24.5640 C   0  0  0  0  0  0  0  0  0  0  0  0
   -6.8870   -2.3290  -22.2270 C   0  0  0  0  0  0  0  0  0  0  0  0
   -8.2220   -0.0590  -24.3500 C   0  0  0  0  0  0  0  0  0  0  0  0
   -8.1410   -2.3950  -23.1460 C   0  0  0  0  0  0  0  0  0  0  0  0
   -8.7630   -0.9300  -23.1570 C   0  0  0  0  0  0  0  0  0  0  0  0
   -7.6590   -1.5680  -18.8750 H   0  0  0  0  0  0  0  0  0  0  0  0
  -14.2420   -0.5260  -23.0460 H   0  0  0  0  0  0  0  0  0  0  0  0
  -12.8760    1.3130  -23.9090 H   0  0  0  0  0  0  0  0  0  0  0  0
  -10.7200   -2.7390  -22.0460 H   0  0  0  0  0  0  0  0  0  0  0  0
   -1.8470    2.0590  -20.9230 H   0  0  0  0  0  0  0  0  0  0  0  0
   -3.1000    1.3140  -22.9400 H   0  0  0  0  0  0  0  0  0  0  0  0
   -4.4670    0.4690  -17.2090 H   0  0  0  0  0  0  0  0  0  0  0  0
   -2.7270    1.5630  -18.6630 H   0  0  0  0  0  0  0  0  0  0  0  0
   -5.1800    0.0290  -22.6940 H   0  0  0  0  0  0  0  0  0  0  0  0
   -8.2580    3.4760  -22.8440 H   0  0  0  0  0  0  0  0  0  0  0  0
   -9.2820   -5.0200  -25.8920 H   0  0  0  0  0  0  0  0  0  0  0  0
   -7.7480   -4.4840  -26.6210 H   0  0  0  0  0  0  0  0  0  0  0  0
   -7.8550   -6.0690  -25.8190 H   0  0  0  0  0  0  0  0  0  0  0  0
   -5.3340    4.2420  -22.5030 H   0  0  0  0  0  0  0  0  0  0  0  0
   -6.4370    3.9290  -21.1370 H   0  0  0  0  0  0  0  0  0  0  0  0
   -6.6960    5.3230  -22.1870 H   0  0  0  0  0  0  0  0  0  0  0  0
   -7.5160    1.9050  -26.0170 H   0  0  0  0  0  0  0  0  0  0  0  0
   -8.5710    3.1840  -25.4430 H   0  0  0  0  0  0  0  0  0  0  0  0
   -8.8370   -2.7220  -25.1500 H   0  0  0  0  0  0  0  0  0  0  0  0
   -7.0560   -2.5460  -25.0410 H   0  0  0  0  0  0  0  0  0  0  0  0
   -5.9620   -2.2240  -22.8120 H   0  0  0  0  0  0  0  0  0  0  0  0
   -6.8020   -3.1950  -21.5470 H   0  0  0  0  0  0  0  0  0  0  0  0
   -7.1390    0.0660  -24.2320 H   0  0  0  0  0  0  0  0  0  0  0  0
   -8.4020   -0.5670  -25.3060 H   0  0  0  0  0  0  0  0  0  0  0  0
   -8.7950   -3.0780  -22.6140 H   0  0  0  0  0  0  0  0  0  0  0  0
  7  2  2  0
  8  3  2  0
  9  4  2  0
 10  5  2  0
 12 11  1  0
 15 14  1  0
 16  1  1  0
 16 11  2  0
 16 13  1  0
 17  7  1  0
 17 12  2  0
 18 13  2  0
 18 17  1  0
 19  5  1  0
 20 14  2  0
 21 15  2  0
 22 10  1  0
 23 19  2  0
 23 20  1  0
 24 21  1  0
 24 22  2  0
 24 23  1  0
 25  8  1  0
 26  9  1  0
 26 22  1  0
 27  7  1  0
 28  6  1  0
 29 25  1  0
 30  8  1  0
 30 27  1  0
 31  6  1  0
 32 26  1  0
 33 27  1  0
 34 31  1  0
 34 32  1  0
 35  9  1  0
 35 18  1  0
 35 33  1  0
 35 34  1  0
 10 36  1  0
 11 37  1  0
 12 38  1  0
 13 39  1  0
 14 40  1  0
 15 41  1  0
 19 42  1  0
 20 43  1  0
 21 44  1  0
 25 45  1  0
 28 46  1  0
 28 47  1  0
 28 48  1  0
 29 49  1  0
 29 50  1  0
 29 51  1  0
 30 52  1  0
 30 53  1  0
 31 54  1  0
 31 55  1  0
 32 56  1  0
 32 57  1  0
 33 58  1  0
 33 59  1  0
 34 60  1  0
M  END
>  <Favorite_cresset>
false

>  <Protein_cresset>
sars_P

>  <MW_cresset>
493.0

>  <#Atoms_cresset>
35

>  <SlogP_cresset>
2.7

>  <TPSA_cresset>
91.8

>  <Flexibility_cresset>
4.9

>  <HBA_cresset>
8

>  <HBD_cresset>
1

>  <Rof5_cresset>
0

>  <Confs_cresset>
0

>  <Poses_cresset>
0

$$$$
predicted (45)
  xed2sdf           3D
 
 66 71  0  0  1  0  0  0  0  0999 V2000
  -13.2270   -3.0260  -21.9490 Cl  0  0  0  0  0  0  0  0  0  0  0  0
  -10.3970    2.5440  -24.3700 O   0  0  0  0  0  0  0  0  0  0  0  0
   -5.2780    2.1550  -24.4940 O   0  0  0  0  0  0  0  0  0  0  0  0
   -8.3200    0.7010  -21.4570 O   0  0  0  0  0  0  0  0  0  0  0  0
   -6.0090   -0.5670  -17.8720 N   0  0  0  0  0  0  0  0  0  0  0  0
   -9.8500    1.4680  -24.2020 C   0  0  0  0  0  0  0  0  0  0  0  0
   -6.3700    2.5630  -24.1280 C   0  0  0  0  0  0  0  0  0  0  0  0
   -7.9260   -0.3500  -21.9390 C   0  0  0  0  0  0  0  0  0  0  0  0
   -6.6770   -1.0060  -18.9480 C   0  0  0  0  0  0  0  0  0  0  0  0
   -8.5150   -5.8790  -27.0940 C   0  0  0  0  0  0  0  0  0  0  0  0
   -8.7110   -6.0140  -25.7180 C   0  0  0  0  0  0  0  0  0  0  0  0
   -7.7840   -4.7840  -27.5540 C   0  0  0  0  0  0  0  0  0  0  0  0
  -12.8060   -0.6860  -23.1760 C   0  0  0  0  0  0  0  0  0  0  0  0
  -12.0320    0.3590  -23.6660 C   0  0  0  0  0  0  0  0  0  0  0  0
   -8.2000   -5.0540  -24.8290 C   0  0  0  0  0  0  0  0  0  0  0  0
   -7.3860   -3.7520  -26.7030 C   0  0  0  0  0  0  0  0  0  0  0  0
  -10.7790   -1.9260  -22.6530 C   0  0  0  0  0  0  0  0  0  0  0  0
   -2.5620    1.2280  -20.7680 C   0  0  0  0  0  0  0  0  0  0  0  0
   -3.2210    0.7280  -21.8990 C   0  0  0  0  0  0  0  0  0  0  0  0
  -12.1880   -1.8170  -22.6560 C   0  0  0  0  0  0  0  0  0  0  0  0
  -10.6230    0.2630  -23.7090 C   0  0  0  0  0  0  0  0  0  0  0  0
   -7.5620   -3.8950  -25.3250 C   0  0  0  0  0  0  0  0  0  0  0  0
   -9.9700   -0.9130  -23.2390 C   0  0  0  0  0  0  0  0  0  0  0  0
   -4.8640    0.1040  -18.0710 C   0  0  0  0  0  0  0  0  0  0  0  0
   -3.1260    1.0600  -19.4990 C   0  0  0  0  0  0  0  0  0  0  0  0
   -4.4460    0.0570  -21.7520 C   0  0  0  0  0  0  0  0  0  0  0  0
   -6.2210   -0.7980  -20.2510 C   0  0  0  0  0  0  0  0  0  0  0  0
   -4.3150    0.3350  -19.3400 C   0  0  0  0  0  0  0  0  0  0  0  0
   -4.9920   -0.1490  -20.4680 C   0  0  0  0  0  0  0  0  0  0  0  0
   -6.5600    3.2350  -22.9340 N   0  0  0  0  0  0  0  0  0  0  0  0
   -7.0260   -1.1770  -21.3200 N   0  0  0  0  0  0  0  0  0  0  0  0
   -8.4930    1.2830  -24.4450 N   0  0  0  0  0  0  0  0  0  0  0  0
   -5.4820    3.5780  -21.9940 C   0  0  0  0  0  0  0  0  0  0  0  0
   -7.6400    2.3840  -24.9740 C   0  0  0  0  0  0  0  0  0  0  0  0
   -6.8630   -2.9050  -24.4180 C   0  0  0  0  0  0  0  0  0  0  0  0
   -6.8150   -2.4430  -21.9650 C   0  0  0  0  0  0  0  0  0  0  0  0
   -7.8850   -0.0640  -24.4150 C   0  0  0  0  0  0  0  0  0  0  0  0
   -7.7150   -2.4140  -23.2110 C   0  0  0  0  0  0  0  0  0  0  0  0
   -8.4080   -0.9610  -23.2530 C   0  0  0  0  0  0  0  0  0  0  0  0
   -7.6220   -1.5180  -18.7640 H   0  0  0  0  0  0  0  0  0  0  0  0
   -8.8350   -6.6590  -27.7850 H   0  0  0  0  0  0  0  0  0  0  0  0
   -9.1830   -6.9080  -25.3370 H   0  0  0  0  0  0  0  0  0  0  0  0
   -7.4280   -4.7870  -28.5600 H   0  0  0  0  0  0  0  0  0  0  0  0
  -13.8900   -0.6100  -23.1740 H   0  0  0  0  0  0  0  0  0  0  0  0
  -12.5450    1.2530  -24.0040 H   0  0  0  0  0  0  0  0  0  0  0  0
   -8.2760   -5.2380  -23.7610 H   0  0  0  0  0  0  0  0  0  0  0  0
   -6.8620   -2.8860  -27.1030 H   0  0  0  0  0  0  0  0  0  0  0  0
  -10.3290   -2.7830  -22.1660 H   0  0  0  0  0  0  0  0  0  0  0  0
   -1.6220    1.7590  -20.8780 H   0  0  0  0  0  0  0  0  0  0  0  0
   -2.7910    0.8780  -22.8850 H   0  0  0  0  0  0  0  0  0  0  0  0
   -4.3870    0.4780  -17.1780 H   0  0  0  0  0  0  0  0  0  0  0  0
   -2.6310    1.4920  -18.6410 H   0  0  0  0  0  0  0  0  0  0  0  0
   -4.9510   -0.3000  -22.6440 H   0  0  0  0  0  0  0  0  0  0  0  0
   -7.5030    3.5340  -22.7140 H   0  0  0  0  0  0  0  0  0  0  0  0
   -4.4960    3.4570  -22.4660 H   0  0  0  0  0  0  0  0  0  0  0  0
   -5.5350    2.9320  -21.1080 H   0  0  0  0  0  0  0  0  0  0  0  0
   -5.6070    4.6220  -21.6870 H   0  0  0  0  0  0  0  0  0  0  0  0
   -7.3500    2.1670  -26.0110 H   0  0  0  0  0  0  0  0  0  0  0  0
   -8.1860    3.3380  -24.9760 H   0  0  0  0  0  0  0  0  0  0  0  0
   -5.9600   -3.4120  -24.0600 H   0  0  0  0  0  0  0  0  0  0  0  0
   -6.4410   -2.0740  -24.9810 H   0  0  0  0  0  0  0  0  0  0  0  0
   -5.7420   -2.5500  -22.1940 H   0  0  0  0  0  0  0  0  0  0  0  0
   -7.1080   -3.2590  -21.2940 H   0  0  0  0  0  0  0  0  0  0  0  0
   -6.7960    0.0380  -24.3160 H   0  0  0  0  0  0  0  0  0  0  0  0
   -8.1000   -0.5510  -25.3750 H   0  0  0  0  0  0  0  0  0  0  0  0
   -8.4750   -3.1670  -23.0200 H   0  0  0  0  0  0  0  0  0  0  0  0
  6  2  2  0
  7  3  2  0
  8  4  2  0
  9  5  2  0
 11 10  2  0
 12 10  1  0
 14 13  1  0
 15 11  1  0
 16 12  2  0
 19 18  1  0
 20  1  1  0
 20 13  2  0
 20 17  1  0
 21  6  1  0
 21 14  2  0
 22 15  2  0
 22 16  1  0
 23 17  2  0
 23 21  1  0
 24  5  1  0
 25 18  2  0
 26 19  2  0
 27  9  1  0
 28 24  2  0
 28 25  1  0
 29 26  1  0
 29 27  2  0
 29 28  1  0
 30  7  1  0
 31  8  1  0
 31 27  1  0
 32  6  1  0
 33 30  1  0
 34  7  1  0
 34 32  1  0
 35 22  1  0
 36 31  1  0
 37 32  1  0
 38 35  1  0
 38 36  1  0
 39  8  1  0
 39 23  1  0
 39 37  1  0
 39 38  1  0
  9 40  1  0
 10 41  1  0
 11 42  1  0
 12 43  1  0
 13 44  1  0
 14 45  1  0
 15 46  1  0
 16 47  1  0
 17 48  1  0
 18 49  1  0
 19 50  1  0
 24 51  1  0
 25 52  1  0
 26 53  1  0
 30 54  1  0
 33 55  1  0
 33 56  1  0
 33 57  1  0
 34 58  1  0
 34 59  1  0
 35 60  1  0
 35 61  1  0
 36 62  1  0
 36 63  1  0
 37 64  1  0
 37 65  1  0
 38 66  1  0
M  END
>  <Favorite_cresset>
false

>  <Protein_cresset>
sars_P

>  <MW_cresset>
539.0

>  <#Atoms_cresset>
39

>  <SlogP_cresset>
4.3

>  <TPSA_cresset>
82.6

>  <Flexibility_cresset>
4.9

>  <HBA_cresset>
7

>  <HBD_cresset>
1

>  <Rof5_cresset>
1

>  <Confs_cresset>
0

>  <Poses_cresset>
0

$$$$
predicted (46)
  xed2sdf           3D
 
 54 58  0  0  1  0  0  0  0  0999 V2000
   -6.9870    2.8030  -22.7980 N   0  0  0  0  0  0  0  0  0  0  0  0
  -10.9010    2.1940  -24.4140 O   0  0  0  0  0  0  0  0  0  0  0  0
   -8.6810    0.4610  -21.3610 O   0  0  0  0  0  0  0  0  0  0  0  0
   -7.9580    3.1920  -23.8350 C   0  0  0  0  0  0  0  0  0  0  0  0
   -6.1230   -0.6470  -17.9560 N   0  0  0  0  0  0  0  0  0  0  0  0
  -10.3410    1.1330  -24.1750 C   0  0  0  0  0  0  0  0  0  0  0  0
   -8.2880   -0.5720  -21.8670 C   0  0  0  0  0  0  0  0  0  0  0  0
   -6.8250   -1.0970  -19.0090 C   0  0  0  0  0  0  0  0  0  0  0  0
  -13.2520   -1.0220  -22.9470 C   0  0  0  0  0  0  0  0  0  0  0  0
  -12.5070    0.0260  -23.5010 C   0  0  0  0  0  0  0  0  0  0  0  0
  -11.1970   -2.1950  -22.4410 C   0  0  0  0  0  0  0  0  0  0  0  0
   -2.8440    1.2430  -20.9670 C   0  0  0  0  0  0  0  0  0  0  0  0
   -3.5650    0.7650  -22.0720 C   0  0  0  0  0  0  0  0  0  0  0  0
  -12.5960   -2.1300  -22.4240 C   0  0  0  0  0  0  0  0  0  0  0  0
  -11.0970   -0.0410  -23.5820 C   0  0  0  0  0  0  0  0  0  0  0  0
  -10.4220   -1.1740  -23.0570 C   0  0  0  0  0  0  0  0  0  0  0  0
   -4.9840    0.0280  -18.1810 C   0  0  0  0  0  0  0  0  0  0  0  0
   -3.3130    1.0110  -19.6650 C   0  0  0  0  0  0  0  0  0  0  0  0
   -4.7530    0.0540  -21.8800 C   0  0  0  0  0  0  0  0  0  0  0  0
   -6.4070   -0.8910  -20.3310 C   0  0  0  0  0  0  0  0  0  0  0  0
   -4.4890    0.2790  -19.4700 C   0  0  0  0  0  0  0  0  0  0  0  0
   -5.2130   -0.1960  -20.5740 C   0  0  0  0  0  0  0  0  0  0  0  0
   -7.2280   -1.2990  -21.3940 N   0  0  0  0  0  0  0  0  0  0  0  0
   -8.9740    0.9660  -24.3960 N   0  0  0  0  0  0  0  0  0  0  0  0
   -8.1540    2.0960  -24.9200 C   0  0  0  0  0  0  0  0  0  0  0  0
   -8.0740   -3.4460  -24.3860 C   0  0  0  0  0  0  0  0  0  0  0  0
   -7.0200   -2.5510  -22.1040 C   0  0  0  0  0  0  0  0  0  0  0  0
   -8.3400   -0.3700  -24.3290 C   0  0  0  0  0  0  0  0  0  0  0  0
   -8.2520   -2.6810  -23.0300 C   0  0  0  0  0  0  0  0  0  0  0  0
   -8.8730   -1.2230  -23.1140 C   0  0  0  0  0  0  0  0  0  0  0  0
  -13.3180   -3.1080  -21.8430 F   0  0  0  0  0  0  0  0  0  0  0  0
   -6.0320    2.8730  -23.1500 H   0  0  0  0  0  0  0  0  0  0  0  0
   -7.0580    3.4230  -21.9910 H   0  0  0  0  0  0  0  0  0  0  0  0
   -8.9290    3.3890  -23.3680 H   0  0  0  0  0  0  0  0  0  0  0  0
   -7.6510    4.1370  -24.2920 H   0  0  0  0  0  0  0  0  0  0  0  0
   -7.7580   -1.6170  -18.7860 H   0  0  0  0  0  0  0  0  0  0  0  0
  -14.3330   -0.9560  -22.8650 H   0  0  0  0  0  0  0  0  0  0  0  0
  -13.0280    0.9130  -23.8470 H   0  0  0  0  0  0  0  0  0  0  0  0
  -10.7530   -3.0460  -21.9460 H   0  0  0  0  0  0  0  0  0  0  0  0
   -1.9260    1.8020  -21.1180 H   0  0  0  0  0  0  0  0  0  0  0  0
   -3.2120    0.9530  -23.0810 H   0  0  0  0  0  0  0  0  0  0  0  0
   -4.4700    0.3950  -17.3020 H   0  0  0  0  0  0  0  0  0  0  0  0
   -2.7730    1.4030  -18.8120 H   0  0  0  0  0  0  0  0  0  0  0  0
   -5.3160   -0.2940  -22.7420 H   0  0  0  0  0  0  0  0  0  0  0  0
   -7.1700    1.7430  -25.2570 H   0  0  0  0  0  0  0  0  0  0  0  0
   -8.6490    2.5380  -25.7990 H   0  0  0  0  0  0  0  0  0  0  0  0
   -7.0320   -3.5590  -24.7030 H   0  0  0  0  0  0  0  0  0  0  0  0
   -8.6150   -2.9830  -25.2180 H   0  0  0  0  0  0  0  0  0  0  0  0
   -8.4920   -4.4540  -24.3080 H   0  0  0  0  0  0  0  0  0  0  0  0
   -6.0640   -2.5270  -22.6290 H   0  0  0  0  0  0  0  0  0  0  0  0
   -6.9750   -3.3780  -21.3890 H   0  0  0  0  0  0  0  0  0  0  0  0
   -7.2490   -0.2430  -24.2770 H   0  0  0  0  0  0  0  0  0  0  0  0
   -8.5400   -0.8620  -25.2850 H   0  0  0  0  0  0  0  0  0  0  0  0
   -8.8660   -3.3330  -22.4040 H   0  0  0  0  0  0  0  0  0  0  0  0
  4  1  1  0
  6  2  2  0
  7  3  2  0
  8  5  2  0
 10  9  1  0
 13 12  1  0
 14  9  2  0
 14 11  1  0
 15  6  1  0
 15 10  2  0
 16 11  2  0
 16 15  1  0
 17  5  1  0
 18 12  2  0
 19 13  2  0
 20  8  1  0
 21 17  2  0
 21 18  1  0
 22 19  1  0
 22 20  2  0
 22 21  1  0
 23  7  1  0
 23 20  1  0
 24  6  1  0
 25  4  1  0
 25 24  1  0
 27 23  1  0
 28 24  1  0
 29 26  1  0
 29 27  1  0
 30  7  1  0
 30 16  1  0
 30 28  1  0
 30 29  1  0
 31 14  1  0
  1 32  1  0
  1 33  1  0
  4 34  1  0
  4 35  1  0
  8 36  1  0
  9 37  1  0
 10 38  1  0
 11 39  1  0
 12 40  1  0
 13 41  1  0
 17 42  1  0
 18 43  1  0
 19 44  1  0
 25 45  1  0
 25 46  1  0
 26 47  1  0
 26 48  1  0
 26 49  1  0
 27 50  1  0
 27 51  1  0
 28 52  1  0
 28 53  1  0
 29 54  1  0
M  END
>  <Favorite_cresset>
false

>  <Protein_cresset>
sars_P

>  <MW_cresset>
418.5

>  <#Atoms_cresset>
31

>  <SlogP_cresset>
3.0

>  <TPSA_cresset>
79.5

>  <Flexibility_cresset>
3.9

>  <HBA_cresset>
6

>  <HBD_cresset>
2

>  <Rof5_cresset>
0

>  <Confs_cresset>
0

>  <Poses_cresset>
0

$$$$
predicted (47)
  xed2sdf           3D
 
 57 62  0  0  0  0  0  0  0  0999 V2000
  -13.2710   -2.7790  -21.6900 Cl  0  0  0  0  0  0  0  0  0  0  0  0
   -7.9480    0.5430  -21.0220 O   0  0  0  0  0  0  0  0  0  0  0  0
   -5.9420   -0.4450  -17.7720 N   0  0  0  0  0  0  0  0  0  0  0  0
   -7.8290   -0.4640  -21.7000 C   0  0  0  0  0  0  0  0  0  0  0  0
   -6.5180   -1.1700  -18.7480 C   0  0  0  0  0  0  0  0  0  0  0  0
  -11.1230   -4.2460  -24.7300 C   0  0  0  0  0  0  0  0  0  0  0  0
  -12.0830   -4.0370  -23.7470 C   0  0  0  0  0  0  0  0  0  0  0  0
   -9.9630   -3.4770  -24.7170 C   0  0  0  0  0  0  0  0  0  0  0  0
  -10.7400   -2.2830  -22.7310 C   0  0  0  0  0  0  0  0  0  0  0  0
   -2.7160    1.2860  -20.9400 C   0  0  0  0  0  0  0  0  0  0  0  0
   -3.3740    0.6250  -21.9890 C   0  0  0  0  0  0  0  0  0  0  0  0
  -11.9220   -3.0540  -22.7740 C   0  0  0  0  0  0  0  0  0  0  0  0
   -9.7660   -2.4890  -23.7380 C   0  0  0  0  0  0  0  0  0  0  0  0
   -4.8880    0.3260  -18.0770 C   0  0  0  0  0  0  0  0  0  0  0  0
   -3.2090    1.1730  -19.6310 C   0  0  0  0  0  0  0  0  0  0  0  0
   -4.4850   -0.1880  -21.7220 C   0  0  0  0  0  0  0  0  0  0  0  0
   -6.1000   -1.1220  -20.0850 C   0  0  0  0  0  0  0  0  0  0  0  0
   -4.3340    0.3760  -19.3650 C   0  0  0  0  0  0  0  0  0  0  0  0
   -4.9640   -0.3420  -20.4020 C   0  0  0  0  0  0  0  0  0  0  0  0
   -8.3100   -0.5060  -23.0070 N   0  0  0  0  0  0  0  0  0  0  0  0
   -7.0410   -1.6690  -21.1500 C   0  0  0  0  0  0  0  0  0  0  0  0
   -8.4440   -1.7380  -23.8250 C   0  0  0  0  0  0  0  0  0  0  0  0
  -12.2370    3.6620  -23.2970 C   0  0  0  0  0  0  0  0  0  0  0  0
  -11.2680    4.7640  -23.6340 C   0  0  0  0  0  0  0  0  0  0  0  0
   -8.6920    0.9590  -25.2200 C   0  0  0  0  0  0  0  0  0  0  0  0
   -7.5980    1.9170  -23.7700 C   0  0  0  0  0  0  0  0  0  0  0  0
  -11.0750    3.3860  -24.2370 C   0  0  0  0  0  0  0  0  0  0  0  0
   -9.9890    1.3540  -23.1660 C   0  0  0  0  0  0  0  0  0  0  0  0
   -8.6670    0.7460  -23.6690 C   0  0  0  0  0  0  0  0  0  0  0  0
   -8.7530    2.4420  -24.6740 C   0  0  0  0  0  0  0  0  0  0  0  0
   -9.8980    2.6740  -23.7830 N   0  0  0  0  0  0  0  0  0  0  0  0
   -7.4070   -1.7330  -18.4660 H   0  0  0  0  0  0  0  0  0  0  0  0
  -11.2810   -5.0100  -25.4760 H   0  0  0  0  0  0  0  0  0  0  0  0
  -13.0100   -4.5880  -23.8000 H   0  0  0  0  0  0  0  0  0  0  0  0
   -9.2030   -3.6660  -25.4690 H   0  0  0  0  0  0  0  0  0  0  0  0
  -10.5890   -1.5420  -21.9440 H   0  0  0  0  0  0  0  0  0  0  0  0
   -1.8460    1.9060  -21.1440 H   0  0  0  0  0  0  0  0  0  0  0  0
   -3.0300    0.7440  -23.0140 H   0  0  0  0  0  0  0  0  0  0  0  0
   -4.5140    0.9670  -17.2820 H   0  0  0  0  0  0  0  0  0  0  0  0
   -2.7120    1.7120  -18.8320 H   0  0  0  0  0  0  0  0  0  0  0  0
   -4.9710   -0.6850  -22.5530 H   0  0  0  0  0  0  0  0  0  0  0  0
   -7.7550   -2.3870  -20.7290 H   0  0  0  0  0  0  0  0  0  0  0  0
   -6.4670   -2.1840  -21.9290 H   0  0  0  0  0  0  0  0  0  0  0  0
   -7.6680   -2.4590  -23.5670 H   0  0  0  0  0  0  0  0  0  0  0  0
   -8.2600   -1.4880  -24.8730 H   0  0  0  0  0  0  0  0  0  0  0  0
  -13.2280    3.7640  -23.7350 H   0  0  0  0  0  0  0  0  0  0  0  0
  -12.2130    3.2600  -22.2810 H   0  0  0  0  0  0  0  0  0  0  0  0
  -11.5720    5.5640  -24.2990 H   0  0  0  0  0  0  0  0  0  0  0  0
  -10.6290    5.0840  -22.8130 H   0  0  0  0  0  0  0  0  0  0  0  0
   -9.5930    0.5960  -25.7130 H   0  0  0  0  0  0  0  0  0  0  0  0
   -7.8090    0.6350  -25.7900 H   0  0  0  0  0  0  0  0  0  0  0  0
   -6.6250    1.7070  -24.2330 H   0  0  0  0  0  0  0  0  0  0  0  0
   -7.4270    2.5100  -22.8640 H   0  0  0  0  0  0  0  0  0  0  0  0
  -11.3260    3.2000  -25.2820 H   0  0  0  0  0  0  0  0  0  0  0  0
  -10.8360    0.7810  -23.5660 H   0  0  0  0  0  0  0  0  0  0  0  0
  -10.0330    1.4240  -22.0730 H   0  0  0  0  0  0  0  0  0  0  0  0
   -8.5220    3.2640  -25.3620 H   0  0  0  0  0  0  0  0  0  0  0  0
  4  2  2  0
  5  3  2  0
  7  6  2  0
  8  6  1  0
 11 10  1  0
 12  1  1  0
 12  7  1  0
 12  9  2  0
 13  8  2  0
 13  9  1  0
 14  3  1  0
 15 10  2  0
 16 11  2  0
 17  5  1  0
 18 14  2  0
 18 15  1  0
 19 16  1  0
 19 17  2  0
 19 18  1  0
 20  4  1  0
 21  4  1  0
 21 17  1  0
 22 13  1  0
 22 20  1  0
 24 23  1  0
 27 23  1  0
 27 24  1  0
 29 20  1  0
 29 25  1  0
 29 26  1  0
 29 28  1  0
 30 25  1  0
 30 26  1  0
 31 27  1  0
 31 28  1  0
 31 30  1  0
  5 32  1  0
  6 33  1  0
  7 34  1  0
  8 35  1  0
  9 36  1  0
 10 37  1  0
 11 38  1  0
 14 39  1  0
 15 40  1  0
 16 41  1  0
 21 42  1  0
 21 43  1  0
 22 44  1  0
 22 45  1  0
 23 46  1  0
 23 47  1  0
 24 48  1  0
 24 49  1  0
 25 50  1  0
 25 51  1  0
 26 52  1  0
 26 53  1  0
 27 54  1  0
 28 55  1  0
 28 56  1  0
 30 57  1  0
M  END
>  <Favorite_cresset>
false

>  <Protein_cresset>
sars_P

>  <MW_cresset>
432.0

>  <#Atoms_cresset>
31

>  <SlogP_cresset>
4.9

>  <TPSA_cresset>
36.4

>  <Flexibility_cresset>
5.9

>  <HBA_cresset>
4

>  <HBD_cresset>
0

>  <Rof5_cresset>
0

>  <Confs_cresset>
0

>  <Poses_cresset>
0

$$$$
predicted (48)
  xed2sdf           3D
 
 46 48  0  0  0  0  0  0  0  0999 V2000
   -5.6620    0.1810  -22.5570 O   0  0  0  0  0  0  0  0  0  0  0  0
   -5.4990    0.0280  -17.8770 N   0  0  0  0  0  0  0  0  0  0  0  0
   -5.8440   -1.0080  -22.3470 C   0  0  0  0  0  0  0  0  0  0  0  0
   -5.6650   -0.8680  -18.8520 C   0  0  0  0  0  0  0  0  0  0  0  0
   -1.9760    2.0960  -20.5520 C   0  0  0  0  0  0  0  0  0  0  0  0
   -2.0920    1.0970  -21.5170 C   0  0  0  0  0  0  0  0  0  0  0  0
   -4.5850    0.9870  -18.0830 C   0  0  0  0  0  0  0  0  0  0  0  0
   -2.8640    2.1200  -19.4700 C   0  0  0  0  0  0  0  0  0  0  0  0
   -3.1110    0.1480  -21.3830 C   0  0  0  0  0  0  0  0  0  0  0  0
   -4.9030   -0.8670  -20.0310 C   0  0  0  0  0  0  0  0  0  0  0  0
   -3.7790    1.0810  -19.2430 C   0  0  0  0  0  0  0  0  0  0  0  0
   -3.9120    0.1030  -20.2240 C   0  0  0  0  0  0  0  0  0  0  0  0
   -6.8140   -1.6930  -23.0000 N   0  0  0  0  0  0  0  0  0  0  0  0
   -5.3230   -1.7790  -21.1310 C   0  0  0  0  0  0  0  0  0  0  0  0
  -10.4760   -5.5930  -18.6120 C   0  0  0  0  0  0  0  0  0  0  0  0
  -11.1960   -3.4020  -21.8610 C   0  0  0  0  0  0  0  0  0  0  0  0
   -6.7080   -3.1640  -23.2070 C   0  0  0  0  0  0  0  0  0  0  0  0
   -8.1470   -1.1430  -22.7700 C   0  0  0  0  0  0  0  0  0  0  0  0
   -7.4010   -3.9850  -22.1000 C   0  0  0  0  0  0  0  0  0  0  0  0
   -8.6570   -1.7270  -21.4200 C   0  0  0  0  0  0  0  0  0  0  0  0
   -9.9550   -4.0990  -20.9300 C   0  0  0  0  0  0  0  0  0  0  0  0
   -8.7410   -3.2590  -21.6150 C   0  0  0  0  0  0  0  0  0  0  0  0
   -6.4770   -1.5800  -18.7120 H   0  0  0  0  0  0  0  0  0  0  0  0
   -1.2230    2.8710  -20.6550 H   0  0  0  0  0  0  0  0  0  0  0  0
   -1.4210    1.0760  -22.3740 H   0  0  0  0  0  0  0  0  0  0  0  0
   -4.4930    1.6610  -17.2480 H   0  0  0  0  0  0  0  0  0  0  0  0
   -2.8630    2.9740  -18.8360 H   0  0  0  0  0  0  0  0  0  0  0  0
   -3.2510   -0.5760  -22.1770 H   0  0  0  0  0  0  0  0  0  0  0  0
   -6.1100   -2.3790  -20.6850 H   0  0  0  0  0  0  0  0  0  0  0  0
   -4.6110   -2.5180  -21.4770 H   0  0  0  0  0  0  0  0  0  0  0  0
  -11.4430   -6.1190  -18.4030 H   0  0  0  0  0  0  0  0  0  0  0  0
  -10.5910   -6.6140  -19.0470 H   0  0  0  0  0  0  0  0  0  0  0  0
   -9.9850   -5.3910  -17.6430 H   0  0  0  0  0  0  0  0  0  0  0  0
  -11.2350   -3.8970  -22.8390 H   0  0  0  0  0  0  0  0  0  0  0  0
  -11.0950   -2.3380  -22.1010 H   0  0  0  0  0  0  0  0  0  0  0  0
  -12.2040   -3.4650  -21.4270 H   0  0  0  0  0  0  0  0  0  0  0  0
   -5.6610   -3.4770  -23.2780 H   0  0  0  0  0  0  0  0  0  0  0  0
   -7.1790   -3.4110  -24.1630 H   0  0  0  0  0  0  0  0  0  0  0  0
   -8.7870   -1.4220  -23.6190 H   0  0  0  0  0  0  0  0  0  0  0  0
   -8.1260   -0.0460  -22.7320 H   0  0  0  0  0  0  0  0  0  0  0  0
   -7.6180   -4.9610  -22.5600 H   0  0  0  0  0  0  0  0  0  0  0  0
   -6.7390   -4.2300  -21.2660 H   0  0  0  0  0  0  0  0  0  0  0  0
   -9.6150   -1.2790  -21.1620 H   0  0  0  0  0  0  0  0  0  0  0  0
   -8.0020   -1.4660  -20.5850 H   0  0  0  0  0  0  0  0  0  0  0  0
   -9.3300   -4.7300  -21.5100 H   0  0  0  0  0  0  0  0  0  0  0  0
   -9.1210   -3.2320  -22.6500 H   0  0  0  0  0  0  0  0  0  0  0  0
  3  1  2  0
  4  2  2  0
  6  5  1  0
  7  2  1  0
  8  5  2  0
  9  6  2  0
 10  4  1  0
 11  7  2  0
 11  8  1  0
 12  9  1  0
 12 10  2  0
 12 11  1  0
 13  3  1  0
 14  3  1  0
 14 10  1  0
 17 13  1  0
 18 13  1  0
 19 17  1  0
 20 18  1  0
 21 15  1  0
 21 16  1  0
 22 19  1  0
 22 20  1  0
 22 21  1  0
  4 23  1  0
  5 24  1  0
  6 25  1  0
  7 26  1  0
  8 27  1  0
  9 28  1  0
 14 29  1  0
 14 30  1  0
 15 31  1  0
 15 32  1  0
 15 33  1  0
 16 34  1  0
 16 35  1  0
 16 36  1  0
 17 37  1  0
 17 38  1  0
 18 39  1  0
 18 40  1  0
 19 41  1  0
 19 42  1  0
 20 43  1  0
 20 44  1  0
 21 45  1  0
 22 46  1  0
M  END
>  <Favorite_cresset>
false

>  <Protein_cresset>
sars_P

>  <MW_cresset>
296.4

>  <#Atoms_cresset>
22

>  <SlogP_cresset>
3.7

>  <TPSA_cresset>
33.2

>  <Flexibility_cresset>
4.2

>  <HBA_cresset>
3

>  <HBD_cresset>
0

>  <Rof5_cresset>
0

>  <Confs_cresset>
0

>  <Poses_cresset>
0

$$$$
predicted (49)
  xed2sdf           3D
 
 67 72  0  0  1  0  0  0  0  0999 V2000
  -13.6970   -2.9320  -21.7530 Cl  0  0  0  0  0  0  0  0  0  0  0  0
  -10.6570    2.3660  -24.5640 O   0  0  0  0  0  0  0  0  0  0  0  0
   -5.6370    2.3860  -24.7420 O   0  0  0  0  0  0  0  0  0  0  0  0
   -8.6100    0.5900  -21.4090 O   0  0  0  0  0  0  0  0  0  0  0  0
   -6.5330   -6.4680  -27.2960 N   0  0  0  0  0  0  0  0  0  0  0  0
   -6.0530   -0.6850  -17.9860 N   0  0  0  0  0  0  0  0  0  0  0  0
   -8.7270   -6.0070  -25.9430 S   0  0  0  0  0  0  0  0  0  0  0  0
  -10.1600    1.2800  -24.3130 C   0  0  0  0  0  0  0  0  0  0  0  0
   -6.8120    2.5270  -24.4510 C   0  0  0  0  0  0  0  0  0  0  0  0
   -8.2180   -0.4410  -21.9220 C   0  0  0  0  0  0  0  0  0  0  0  0
   -7.8560   -6.5330  -27.3620 C   0  0  0  0  0  0  0  0  0  0  0  0
   -6.1480   -5.8280  -26.1330 C   0  0  0  0  0  0  0  0  0  0  0  0
   -6.7280   -1.1050  -19.0710 C   0  0  0  0  0  0  0  0  0  0  0  0
   -7.2050   -5.3910  -25.3590 C   0  0  0  0  0  0  0  0  0  0  0  0
  -13.2320   -0.6600  -23.1500 C   0  0  0  0  0  0  0  0  0  0  0  0
  -12.4050    0.3220  -23.6990 C   0  0  0  0  0  0  0  0  0  0  0  0
  -11.2690   -1.9370  -22.5270 C   0  0  0  0  0  0  0  0  0  0  0  0
   -2.7360    1.3650  -20.8550 C   0  0  0  0  0  0  0  0  0  0  0  0
   -3.4280    0.9170  -21.9910 C   0  0  0  0  0  0  0  0  0  0  0  0
  -12.6610   -1.7750  -22.5470 C   0  0  0  0  0  0  0  0  0  0  0  0
  -10.9970    0.1720  -23.7080 C   0  0  0  0  0  0  0  0  0  0  0  0
  -10.4080   -0.9850  -23.1300 C   0  0  0  0  0  0  0  0  0  0  0  0
   -4.9320    0.0370  -18.1640 C   0  0  0  0  0  0  0  0  0  0  0  0
   -3.2410    1.0990  -19.5750 C   0  0  0  0  0  0  0  0  0  0  0  0
   -4.6270    0.2040  -21.8500 C   0  0  0  0  0  0  0  0  0  0  0  0
   -6.3140   -0.8150  -20.3780 C   0  0  0  0  0  0  0  0  0  0  0  0
   -4.4190    0.3450  -19.4300 C   0  0  0  0  0  0  0  0  0  0  0  0
   -5.1180   -0.0980  -20.5680 C   0  0  0  0  0  0  0  0  0  0  0  0
   -7.2380    3.2310  -23.3360 N   0  0  0  0  0  0  0  0  0  0  0  0
   -7.1340   -4.5000  -24.3040 N   0  0  0  0  0  0  0  0  0  0  0  0
   -7.1360   -1.1710  -21.4710 N   0  0  0  0  0  0  0  0  0  0  0  0
   -8.8160    0.9960  -24.5750 N   0  0  0  0  0  0  0  0  0  0  0  0
   -8.6060   -6.9550  -28.6000 C   0  0  0  0  0  0  0  0  0  0  0  0
   -6.3540    3.9510  -22.4030 C   0  0  0  0  0  0  0  0  0  0  0  0
   -7.9480    1.9590  -25.3190 C   0  0  0  0  0  0  0  0  0  0  0  0
   -8.1940   -3.4620  -24.2540 C   0  0  0  0  0  0  0  0  0  0  0  0
   -6.9400   -2.4080  -22.2170 C   0  0  0  0  0  0  0  0  0  0  0  0
   -8.2540   -0.3610  -24.3730 C   0  0  0  0  0  0  0  0  0  0  0  0
   -8.2660   -2.5940  -22.9660 C   0  0  0  0  0  0  0  0  0  0  0  0
   -8.8560   -1.1230  -23.1360 C   0  0  0  0  0  0  0  0  0  0  0  0
   -5.0920   -5.6350  -25.9750 H   0  0  0  0  0  0  0  0  0  0  0  0
   -7.6360   -1.6760  -18.8830 H   0  0  0  0  0  0  0  0  0  0  0  0
  -14.3120   -0.5460  -23.1650 H   0  0  0  0  0  0  0  0  0  0  0  0
  -12.8800    1.2060  -24.1160 H   0  0  0  0  0  0  0  0  0  0  0  0
  -10.8920   -2.8160  -22.0260 H   0  0  0  0  0  0  0  0  0  0  0  0
   -1.8140    1.9290  -20.9700 H   0  0  0  0  0  0  0  0  0  0  0  0
   -3.0470    1.1360  -22.9830 H   0  0  0  0  0  0  0  0  0  0  0  0
   -4.4400    0.3760  -17.2590 H   0  0  0  0  0  0  0  0  0  0  0  0
   -2.7220    1.4820  -18.7040 H   0  0  0  0  0  0  0  0  0  0  0  0
   -5.1630   -0.1140  -22.7390 H   0  0  0  0  0  0  0  0  0  0  0  0
   -8.2360    3.3010  -23.1890 H   0  0  0  0  0  0  0  0  0  0  0  0
   -6.1930   -4.2000  -24.0640 H   0  0  0  0  0  0  0  0  0  0  0  0
   -9.6770   -6.7310  -28.4860 H   0  0  0  0  0  0  0  0  0  0  0  0
   -8.2370   -6.4300  -29.4880 H   0  0  0  0  0  0  0  0  0  0  0  0
   -8.5130   -8.0250  -28.8120 H   0  0  0  0  0  0  0  0  0  0  0  0
   -5.3220    3.9800  -22.7710 H   0  0  0  0  0  0  0  0  0  0  0  0
   -6.3530    3.4380  -21.4380 H   0  0  0  0  0  0  0  0  0  0  0  0
   -6.7260    4.9770  -22.2690 H   0  0  0  0  0  0  0  0  0  0  0  0
   -7.5200    1.4790  -26.2070 H   0  0  0  0  0  0  0  0  0  0  0  0
   -8.5460    2.8150  -25.6550 H   0  0  0  0  0  0  0  0  0  0  0  0
   -9.1790   -3.9370  -24.3430 H   0  0  0  0  0  0  0  0  0  0  0  0
   -8.0440   -2.8320  -25.1310 H   0  0  0  0  0  0  0  0  0  0  0  0
   -6.1040   -2.2920  -22.9140 H   0  0  0  0  0  0  0  0  0  0  0  0
   -6.7350   -3.2560  -21.5510 H   0  0  0  0  0  0  0  0  0  0  0  0
   -7.1650   -0.2830  -24.2440 H   0  0  0  0  0  0  0  0  0  0  0  0
   -8.4400   -0.9070  -25.3020 H   0  0  0  0  0  0  0  0  0  0  0  0
   -8.8700   -3.1510  -22.2440 H   0  0  0  0  0  0  0  0  0  0  0  0
  8  2  2  0
  9  3  2  0
 10  4  2  0
 11  5  2  0
 11  7  1  0
 12  5  1  0
 13  6  2  0
 14  7  1  0
 14 12  2  0
 16 15  1  0
 19 18  1  0
 20  1  1  0
 20 15  2  0
 20 17  1  0
 21  8  1  0
 21 16  2  0
 22 17  2  0
 22 21  1  0
 23  6  1  0
 24 18  2  0
 25 19  2  0
 26 13  1  0
 27 23  2  0
 27 24  1  0
 28 25  1  0
 28 26  2  0
 28 27  1  0
 29  9  1  0
 30 14  1  0
 31 10  1  0
 31 26  1  0
 32  8  1  0
 33 11  1  0
 34 29  1  0
 35  9  1  0
 35 32  1  0
 36 30  1  0
 37 31  1  0
 38 32  1  0
 39 36  1  0
 39 37  1  0
 40 10  1  0
 40 22  1  0
 40 38  1  0
 40 39  1  0
 12 41  1  0
 13 42  1  0
 15 43  1  0
 16 44  1  0
 17 45  1  0
 18 46  1  0
 19 47  1  0
 23 48  1  0
 24 49  1  0
 25 50  1  0
 29 51  1  0
 30 52  1  0
 33 53  1  0
 33 54  1  0
 33 55  1  0
 34 56  1  0
 34 57  1  0
 34 58  1  0
 35 59  1  0
 35 60  1  0
 36 61  1  0
 36 62  1  0
 37 63  1  0
 37 64  1  0
 38 65  1  0
 38 66  1  0
 39 67  1  0
M  END
>  <Favorite_cresset>
false

>  <Protein_cresset>
sars_P

>  <MW_cresset>
575.1

>  <#Atoms_cresset>
40

>  <SlogP_cresset>
3.9

>  <TPSA_cresset>
107.5

>  <Flexibility_cresset>
5.1

>  <HBA_cresset>
9

>  <HBD_cresset>
2

>  <Rof5_cresset>
1

>  <Confs_cresset>
0

>  <Poses_cresset>
0

$$$$
predicted (50)
  xed2sdf           3D
 
 66 70  0  0  1  0  0  0  0  0999 V2000
  -10.8920    2.3850  -24.3010 O   0  0  0  0  0  0  0  0  0  0  0  0
   -5.7800    2.0380  -24.6680 O   0  0  0  0  0  0  0  0  0  0  0  0
   -8.6620    0.4740  -21.3120 O   0  0  0  0  0  0  0  0  0  0  0  0
   -6.1340   -0.6580  -18.0330 N   0  0  0  0  0  0  0  0  0  0  0  0
   -8.1060   -4.6380  -24.5250 O   0  0  0  0  0  0  0  0  0  0  0  0
  -10.3930    1.2850  -24.1100 C   0  0  0  0  0  0  0  0  0  0  0  0
   -6.9090    2.3550  -24.3290 C   0  0  0  0  0  0  0  0  0  0  0  0
   -8.3180   -0.5480  -21.8690 C   0  0  0  0  0  0  0  0  0  0  0  0
   -6.8010   -1.1390  -19.1040 C   0  0  0  0  0  0  0  0  0  0  0  0
  -13.4110   -0.7730  -22.9440 C   0  0  0  0  0  0  0  0  0  0  0  0
  -12.6200    0.2590  -23.4650 C   0  0  0  0  0  0  0  0  0  0  0  0
  -11.3990   -2.0390  -22.4380 C   0  0  0  0  0  0  0  0  0  0  0  0
   -2.7620    1.1710  -20.9850 C   0  0  0  0  0  0  0  0  0  0  0  0
   -3.4660    0.6870  -22.0980 C   0  0  0  0  0  0  0  0  0  0  0  0
  -12.7960   -1.9110  -22.4260 C   0  0  0  0  0  0  0  0  0  0  0  0
  -11.2060    0.1460  -23.5110 C   0  0  0  0  0  0  0  0  0  0  0  0
  -10.5720   -1.0270  -22.9990 C   0  0  0  0  0  0  0  0  0  0  0  0
   -4.9870    0.0200  -18.2340 C   0  0  0  0  0  0  0  0  0  0  0  0
   -3.2710    0.9700  -19.6930 C   0  0  0  0  0  0  0  0  0  0  0  0
   -4.6680   -0.0110  -21.9330 C   0  0  0  0  0  0  0  0  0  0  0  0
   -6.3610   -0.9580  -20.4250 C   0  0  0  0  0  0  0  0  0  0  0  0
   -4.4570    0.2390  -19.5160 C   0  0  0  0  0  0  0  0  0  0  0  0
   -5.1550   -0.2610  -20.6370 C   0  0  0  0  0  0  0  0  0  0  0  0
   -7.1730    3.0870  -23.1830 N   0  0  0  0  0  0  0  0  0  0  0  0
   -7.2180   -1.2970  -21.5040 N   0  0  0  0  0  0  0  0  0  0  0  0
   -9.0510    1.0100  -24.4090 N   0  0  0  0  0  0  0  0  0  0  0  0
   -6.1630    3.6580  -22.2780 C   0  0  0  0  0  0  0  0  0  0  0  0
   -8.1610    1.9620  -25.1450 C   0  0  0  0  0  0  0  0  0  0  0  0
   -7.6490   -4.7090  -26.9440 C   0  0  0  0  0  0  0  0  0  0  0  0
   -8.3670   -6.8030  -25.6340 C   0  0  0  0  0  0  0  0  0  0  0  0
   -8.4930   -5.2690  -25.7750 C   0  0  0  0  0  0  0  0  0  0  0  0
   -8.3860   -3.2220  -24.4940 C   0  0  0  0  0  0  0  0  0  0  0  0
   -7.0810   -2.5120  -22.3150 C   0  0  0  0  0  0  0  0  0  0  0  0
   -8.5180   -0.3610  -24.3200 C   0  0  0  0  0  0  0  0  0  0  0  0
   -8.4390   -2.6290  -23.0590 C   0  0  0  0  0  0  0  0  0  0  0  0
   -9.0200   -1.1550  -23.0740 C   0  0  0  0  0  0  0  0  0  0  0  0
  -13.5610   -2.8900  -21.8990 F   0  0  0  0  0  0  0  0  0  0  0  0
   -7.7470   -1.6450  -18.9040 H   0  0  0  0  0  0  0  0  0  0  0  0
  -14.4930   -0.6880  -22.9290 H   0  0  0  0  0  0  0  0  0  0  0  0
  -13.1320    1.1320  -23.8610 H   0  0  0  0  0  0  0  0  0  0  0  0
  -10.9920   -2.9400  -21.9970 H   0  0  0  0  0  0  0  0  0  0  0  0
   -1.8340    1.7150  -21.1310 H   0  0  0  0  0  0  0  0  0  0  0  0
   -3.0860    0.8660  -23.0970 H   0  0  0  0  0  0  0  0  0  0  0  0
   -4.4990    0.4150  -17.3440 H   0  0  0  0  0  0  0  0  0  0  0  0
   -2.7480    1.3850  -18.8380 H   0  0  0  0  0  0  0  0  0  0  0  0
   -5.2110   -0.3490  -22.8130 H   0  0  0  0  0  0  0  0  0  0  0  0
   -8.1410    3.3150  -23.0050 H   0  0  0  0  0  0  0  0  0  0  0  0
   -5.2150    3.8410  -22.8000 H   0  0  0  0  0  0  0  0  0  0  0  0
   -5.9780    2.9420  -21.4710 H   0  0  0  0  0  0  0  0  0  0  0  0
   -6.5530    4.6010  -21.8610 H   0  0  0  0  0  0  0  0  0  0  0  0
   -7.8220    1.5070  -26.0880 H   0  0  0  0  0  0  0  0  0  0  0  0
   -8.7040    2.8830  -25.3900 H   0  0  0  0  0  0  0  0  0  0  0  0
   -6.5790   -4.7670  -26.7240 H   0  0  0  0  0  0  0  0  0  0  0  0
   -7.8390   -5.2620  -27.8700 H   0  0  0  0  0  0  0  0  0  0  0  0
   -7.9070   -3.6610  -27.1300 H   0  0  0  0  0  0  0  0  0  0  0  0
   -7.3220   -7.1290  -25.6020 H   0  0  0  0  0  0  0  0  0  0  0  0
   -8.8690   -7.1580  -24.7260 H   0  0  0  0  0  0  0  0  0  0  0  0
   -8.8480   -7.3000  -26.4850 H   0  0  0  0  0  0  0  0  0  0  0  0
   -9.5450   -5.0450  -25.9720 H   0  0  0  0  0  0  0  0  0  0  0  0
   -9.3820   -3.0580  -24.9280 H   0  0  0  0  0  0  0  0  0  0  0  0
   -7.6260   -2.6780  -25.0750 H   0  0  0  0  0  0  0  0  0  0  0  0
   -6.2520   -2.3910  -23.0230 H   0  0  0  0  0  0  0  0  0  0  0  0
   -6.8900   -3.3860  -21.6780 H   0  0  0  0  0  0  0  0  0  0  0  0
   -7.4170   -0.3260  -24.2930 H   0  0  0  0  0  0  0  0  0  0  0  0
   -8.8440   -0.8640  -25.2390 H   0  0  0  0  0  0  0  0  0  0  0  0
   -9.0600   -3.2790  -22.4360 H   0  0  0  0  0  0  0  0  0  0  0  0
  6  1  2  0
  7  2  2  0
  8  3  2  0
  9  4  2  0
 11 10  1  0
 14 13  1  0
 15 10  2  0
 15 12  1  0
 16  6  1  0
 16 11  2  0
 17 12  2  0
 17 16  1  0
 18  4  1  0
 19 13  2  0
 20 14  2  0
 21  9  1  0
 22 18  2  0
 22 19  1  0
 23 20  1  0
 23 21  2  0
 23 22  1  0
 24  7  1  0
 25  8  1  0
 25 21  1  0
 26  6  1  0
 27 24  1  0
 28  7  1  0
 28 26  1  0
 31  5  1  0
 31 29  1  0
 31 30  1  0
 32  5  1  0
 33 25  1  0
 34 26  1  0
 35 32  1  0
 35 33  1  0
 36  8  1  0
 36 17  1  0
 36 34  1  0
 36 35  1  0
 37 15  1  0
  9 38  1  0
 10 39  1  0
 11 40  1  0
 12 41  1  0
 13 42  1  0
 14 43  1  0
 18 44  1  0
 19 45  1  0
 20 46  1  0
 24 47  1  0
 27 48  1  0
 27 49  1  0
 27 50  1  0
 28 51  1  0
 28 52  1  0
 29 53  1  0
 29 54  1  0
 29 55  1  0
 30 56  1  0
 30 57  1  0
 30 58  1  0
 31 59  1  0
 32 60  1  0
 32 61  1  0
 33 62  1  0
 33 63  1  0
 34 64  1  0
 34 65  1  0
 35 66  1  0
M  END
>  <Favorite_cresset>
false

>  <Protein_cresset>
sars_P

>  <MW_cresset>
504.6

>  <#Atoms_cresset>
37

>  <SlogP_cresset>
3.2

>  <TPSA_cresset>
91.8

>  <Flexibility_cresset>
5.9

>  <HBA_cresset>
8

>  <HBD_cresset>
1

>  <Rof5_cresset>
1

>  <Confs_cresset>
0

>  <Poses_cresset>
0

$$$$
predicted (51)
  xed2sdf           3D
 
 52 54  0  0  1  0  0  0  0  0999 V2000
   13.9760   -2.6760   22.5160 Cl  0  0  0  0  0  0  0  0  0  0  0  0
    8.6760    0.3650   21.4760 O   0  0  0  0  0  0  0  0  0  0  0  0
    6.8140   -4.6550   25.9740 O   0  0  0  0  0  0  0  0  0  0  0  0
    6.1690   -0.3310   17.8180 N   0  0  0  0  0  0  0  0  0  0  0  0
    8.2750   -0.7390   21.7920 C   0  0  0  0  0  0  0  0  0  0  0  0
    7.1210   -4.2990   24.8460 C   0  0  0  0  0  0  0  0  0  0  0  0
    7.2360   -1.7570   25.0980 C   0  0  0  0  0  0  0  0  0  0  0  0
    7.9660   -3.0170   24.5730 C   0  0  0  0  0  0  0  0  0  0  0  0
    6.8010   -0.8830   18.8760 C   0  0  0  0  0  0  0  0  0  0  0  0
   11.8390    0.2800   24.2040 C   0  0  0  0  0  0  0  0  0  0  0  0
   12.9110   -0.5380   23.8310 C   0  0  0  0  0  0  0  0  0  0  0  0
   10.5220   -0.0760   23.8680 C   0  0  0  0  0  0  0  0  0  0  0  0
   11.3650   -2.0260   22.6930 C   0  0  0  0  0  0  0  0  0  0  0  0
    2.8520    1.5090   20.8110 C   0  0  0  0  0  0  0  0  0  0  0  0
    3.5090    0.9320   21.9100 C   0  0  0  0  0  0  0  0  0  0  0  0
   12.6660   -1.6870   23.0690 C   0  0  0  0  0  0  0  0  0  0  0  0
   10.2820   -1.2370   23.1050 C   0  0  0  0  0  0  0  0  0  0  0  0
    5.0500    0.3790   18.0410 C   0  0  0  0  0  0  0  0  0  0  0  0
    3.3460    1.3130   19.5130 C   0  0  0  0  0  0  0  0  0  0  0  0
    4.6660    0.1670   21.7260 C   0  0  0  0  0  0  0  0  0  0  0  0
    6.3600   -0.7250   20.1980 C   0  0  0  0  0  0  0  0  0  0  0  0
    4.5090    0.5560   19.3230 C   0  0  0  0  0  0  0  0  0  0  0  0
    5.1770   -0.0100   20.4270 C   0  0  0  0  0  0  0  0  0  0  0  0
    7.1090   -1.2660   21.2670 N   0  0  0  0  0  0  0  0  0  0  0  0
    8.9740   -1.5740   22.6750 N   0  0  0  0  0  0  0  0  0  0  0  0
    6.7770   -5.0180   23.7080 N   0  0  0  0  0  0  0  0  0  0  0  0
    8.4510   -2.9090   23.0910 C   0  0  0  0  0  0  0  0  0  0  0  0
    6.0730   -6.8150   22.1650 C   0  0  0  0  0  0  0  0  0  0  0  0
    6.1370   -6.3440   23.6330 C   0  0  0  0  0  0  0  0  0  0  0  0
    6.1580   -1.8030   24.9090 H   0  0  0  0  0  0  0  0  0  0  0  0
    7.3760   -1.6710   26.1790 H   0  0  0  0  0  0  0  0  0  0  0  0
    7.6210   -0.8290   24.6630 H   0  0  0  0  0  0  0  0  0  0  0  0
    8.8780   -3.1110   25.1690 H   0  0  0  0  0  0  0  0  0  0  0  0
    7.7040   -1.4580   18.6680 H   0  0  0  0  0  0  0  0  0  0  0  0
   12.0420    1.2000   24.7340 H   0  0  0  0  0  0  0  0  0  0  0  0
   13.9280   -0.2650   24.0970 H   0  0  0  0  0  0  0  0  0  0  0  0
    9.6960    0.5590   24.1730 H   0  0  0  0  0  0  0  0  0  0  0  0
   11.2060   -2.8850   22.0450 H   0  0  0  0  0  0  0  0  0  0  0  0
    1.9690    2.1180   20.9710 H   0  0  0  0  0  0  0  0  0  0  0  0
    3.1280    1.0930   22.9140 H   0  0  0  0  0  0  0  0  0  0  0  0
    4.5870    0.8350   17.1710 H   0  0  0  0  0  0  0  0  0  0  0  0
    2.8380    1.7670   18.6680 H   0  0  0  0  0  0  0  0  0  0  0  0
    5.1690   -0.2630   22.5900 H   0  0  0  0  0  0  0  0  0  0  0  0
    6.7920   -2.1600   21.6250 H   0  0  0  0  0  0  0  0  0  0  0  0
    7.0840   -4.6180   22.8270 H   0  0  0  0  0  0  0  0  0  0  0  0
    7.6470   -3.2010   22.4200 H   0  0  0  0  0  0  0  0  0  0  0  0
    9.2300   -3.6670   22.9610 H   0  0  0  0  0  0  0  0  0  0  0  0
    5.0410   -6.9010   21.8080 H   0  0  0  0  0  0  0  0  0  0  0  0
    6.5920   -6.1080   21.5090 H   0  0  0  0  0  0  0  0  0  0  0  0
    6.5540   -7.7910   22.0440 H   0  0  0  0  0  0  0  0  0  0  0  0
    5.1200   -6.3090   24.0410 H   0  0  0  0  0  0  0  0  0  0  0  0
    6.7110   -7.0780   24.2120 H   0  0  0  0  0  0  0  0  0  0  0  0
  5  2  2  0
  6  3  2  0
  8  6  1  0
  8  7  1  0
  9  4  2  0
 11 10  2  0
 12 10  1  0
 15 14  1  0
 16  1  1  0
 16 11  1  0
 16 13  2  0
 17 12  2  0
 17 13  1  0
 18  4  1  0
 19 14  2  0
 20 15  2  0
 21  9  1  0
 22 18  2  0
 22 19  1  0
 23 20  1  0
 23 21  2  0
 23 22  1  0
 24  5  1  0
 24 21  1  0
 25  5  1  0
 25 17  1  0
 26  6  1  0
 27  8  1  0
 27 25  1  0
 29 26  1  0
 29 28  1  0
  7 30  1  0
  7 31  1  0
  7 32  1  0
  8 33  1  0
  9 34  1  0
 10 35  1  0
 11 36  1  0
 12 37  1  0
 13 38  1  0
 14 39  1  0
 15 40  1  0
 18 41  1  0
 19 42  1  0
 20 43  1  0
 24 44  1  0
 26 45  1  0
 27 46  1  0
 27 47  1  0
 28 48  1  0
 28 49  1  0
 28 50  1  0
 29 51  1  0
 29 52  1  0
M  END
>  <Favorite_cresset>
false

>  <Protein_cresset>
sars_P

>  <MW_cresset>
410.9

>  <#Atoms_cresset>
29

>  <SlogP_cresset>
4.7

>  <TPSA_cresset>
74.3

>  <Flexibility_cresset>
5.0

>  <HBA_cresset>
6

>  <HBD_cresset>
2

>  <Rof5_cresset>
0

>  <Confs_cresset>
0

>  <Poses_cresset>
0

$$$$
predicted (52)
  xed2sdf           3D
 
 57 60  0  0  0  0  0  0  0  0999 V2000
   -8.1370    0.2790  -21.0970 O   0  0  0  0  0  0  0  0  0  0  0  0
   -5.8940   -4.5650  -22.3740 O   0  0  0  0  0  0  0  0  0  0  0  0
   -5.9630   -0.3440  -17.8310 N   0  0  0  0  0  0  0  0  0  0  0  0
   -7.6260   -0.5120  -21.8740 C   0  0  0  0  0  0  0  0  0  0  0  0
   -6.3040   -5.4290  -23.1370 C   0  0  0  0  0  0  0  0  0  0  0  0
   -6.3870   -1.0130  -18.9160 C   0  0  0  0  0  0  0  0  0  0  0  0
  -13.0740   -1.9510  -22.7510 C   0  0  0  0  0  0  0  0  0  0  0  0
   -6.5230   -1.9850  -26.3150 C   0  0  0  0  0  0  0  0  0  0  0  0
  -12.9960   -0.8760  -23.6480 C   0  0  0  0  0  0  0  0  0  0  0  0
  -11.8980   -2.4190  -22.1620 C   0  0  0  0  0  0  0  0  0  0  0  0
   -6.5260   -3.3530  -25.9990 C   0  0  0  0  0  0  0  0  0  0  0  0
   -7.0250   -1.0530  -25.3930 C   0  0  0  0  0  0  0  0  0  0  0  0
   -7.6420   -2.8630  -23.9090 C   0  0  0  0  0  0  0  0  0  0  0  0
  -11.7540   -0.2490  -23.8660 C   0  0  0  0  0  0  0  0  0  0  0  0
  -10.6590   -1.7920  -22.3790 C   0  0  0  0  0  0  0  0  0  0  0  0
   -2.6250    1.9000  -20.5250 C   0  0  0  0  0  0  0  0  0  0  0  0
   -3.1220    1.2940  -21.6890 C   0  0  0  0  0  0  0  0  0  0  0  0
   -7.0760   -3.7870  -24.7840 C   0  0  0  0  0  0  0  0  0  0  0  0
   -7.5580   -1.5000  -24.1700 C   0  0  0  0  0  0  0  0  0  0  0  0
  -10.5810   -0.6860  -23.2500 C   0  0  0  0  0  0  0  0  0  0  0  0
   -4.9460    0.5180  -17.9780 C   0  0  0  0  0  0  0  0  0  0  0  0
   -3.2340    1.6360  -19.2960 C   0  0  0  0  0  0  0  0  0  0  0  0
   -4.1990    0.3980  -21.6100 C   0  0  0  0  0  0  0  0  0  0  0  0
   -5.8370   -0.8280  -20.1990 C   0  0  0  0  0  0  0  0  0  0  0  0
   -4.3070    0.7450  -19.2070 C   0  0  0  0  0  0  0  0  0  0  0  0
   -4.7760    0.0880  -20.3580 C   0  0  0  0  0  0  0  0  0  0  0  0
   -6.9140   -5.1150  -24.3390 N   0  0  0  0  0  0  0  0  0  0  0  0
   -8.0530   -0.5970  -23.2010 N   0  0  0  0  0  0  0  0  0  0  0  0
   -6.5340   -1.4790  -21.3780 C   0  0  0  0  0  0  0  0  0  0  0  0
   -9.2930    0.0940  -23.5710 C   0  0  0  0  0  0  0  0  0  0  0  0
   -5.1950   -7.0810  -21.6420 C   0  0  0  0  0  0  0  0  0  0  0  0
   -6.1190   -6.9280  -22.8660 C   0  0  0  0  0  0  0  0  0  0  0  0
   -7.2420   -1.6720  -18.7660 H   0  0  0  0  0  0  0  0  0  0  0  0
  -14.0180   -2.4250  -22.4880 H   0  0  0  0  0  0  0  0  0  0  0  0
   -6.1150   -1.6480  -27.2620 H   0  0  0  0  0  0  0  0  0  0  0  0
  -13.8790   -0.5260  -24.1710 H   0  0  0  0  0  0  0  0  0  0  0  0
  -11.9770   -3.2470  -21.4820 H   0  0  0  0  0  0  0  0  0  0  0  0
   -6.0880   -4.0700  -26.6830 H   0  0  0  0  0  0  0  0  0  0  0  0
   -6.9960    0.0060  -25.6260 H   0  0  0  0  0  0  0  0  0  0  0  0
   -8.1080   -3.2060  -22.9920 H   0  0  0  0  0  0  0  0  0  0  0  0
  -11.6840    0.6350  -24.4750 H   0  0  0  0  0  0  0  0  0  0  0  0
   -9.7810   -2.1760  -21.8650 H   0  0  0  0  0  0  0  0  0  0  0  0
   -1.7890    2.5910  -20.5690 H   0  0  0  0  0  0  0  0  0  0  0  0
   -2.6790    1.5220  -22.6540 H   0  0  0  0  0  0  0  0  0  0  0  0
   -4.6660    1.0750  -17.0890 H   0  0  0  0  0  0  0  0  0  0  0  0
   -2.8760    2.1300  -18.4100 H   0  0  0  0  0  0  0  0  0  0  0  0
   -4.5730   -0.0390  -22.5300 H   0  0  0  0  0  0  0  0  0  0  0  0
   -7.2310   -5.8550  -24.9530 H   0  0  0  0  0  0  0  0  0  0  0  0
   -7.0110   -2.4120  -21.0560 H   0  0  0  0  0  0  0  0  0  0  0  0
   -5.8350   -1.7520  -22.1750 H   0  0  0  0  0  0  0  0  0  0  0  0
   -9.2500    0.3160  -24.6440 H   0  0  0  0  0  0  0  0  0  0  0  0
   -9.3310    1.0700  -23.0730 H   0  0  0  0  0  0  0  0  0  0  0  0
   -4.2900   -6.4880  -21.8050 H   0  0  0  0  0  0  0  0  0  0  0  0
   -5.6870   -6.7280  -20.7280 H   0  0  0  0  0  0  0  0  0  0  0  0
   -4.8980   -8.1060  -21.4750 H   0  0  0  0  0  0  0  0  0  0  0  0
   -7.0950   -7.3980  -22.6850 H   0  0  0  0  0  0  0  0  0  0  0  0
   -5.7000   -7.4020  -23.7680 H   0  0  0  0  0  0  0  0  0  0  0  0
  4  1  2  0
  5  2  2  0
  6  3  2  0
  9  7  2  0
 10  7  1  0
 11  8  2  0
 12  8  1  0
 14  9  1  0
 15 10  2  0
 17 16  1  0
 18 11  1  0
 18 13  2  0
 19 12  2  0
 19 13  1  0
 20 14  2  0
 20 15  1  0
 21  3  1  0
 22 16  2  0
 23 17  2  0
 24  6  1  0
 25 21  2  0
 25 22  1  0
 26 23  1  0
 26 24  2  0
 26 25  1  0
 27  5  1  0
 27 18  1  0
 28  4  1  0
 28 19  1  0
 29  4  1  0
 29 24  1  0
 30 20  1  0
 30 28  1  0
 32  5  1  0
 32 31  1  0
  6 33  1  0
  7 34  1  0
  8 35  1  0
  9 36  1  0
 10 37  1  0
 11 38  1  0
 12 39  1  0
 13 40  1  0
 14 41  1  0
 15 42  1  0
 16 43  1  0
 17 44  1  0
 21 45  1  0
 22 46  1  0
 23 47  1  0
 27 48  1  0
 29 49  1  0
 29 50  1  0
 30 51  1  0
 30 52  1  0
 31 53  1  0
 31 54  1  0
 31 55  1  0
 32 56  1  0
 32 57  1  0
M  END
>  <Favorite_cresset>
false

>  <Protein_cresset>
sars_P

>  <MW_cresset>
423.5

>  <#Atoms_cresset>
32

>  <SlogP_cresset>
5.4

>  <TPSA_cresset>
62.3

>  <Flexibility_cresset>
5.8

>  <HBA_cresset>
5

>  <HBD_cresset>
1

>  <Rof5_cresset>
1

>  <Confs_cresset>
0

>  <Poses_cresset>
0

$$$$
predicted (53)
  xed2sdf           3D
 
 59 63  0  0  1  0  0  0  0  0999 V2000
  -13.5930   -2.7890  -21.9880 Cl  0  0  0  0  0  0  0  0  0  0  0  0
  -10.5360    2.5950  -24.5980 O   0  0  0  0  0  0  0  0  0  0  0  0
   -8.3290    4.6460  -25.3020 O   0  0  0  0  0  0  0  0  0  0  0  0
   -8.5010    0.7980  -21.4430 O   0  0  0  0  0  0  0  0  0  0  0  0
   -6.0600   -0.4450  -17.9360 N   0  0  0  0  0  0  0  0  0  0  0  0
  -10.0220    1.5300  -24.3030 C   0  0  0  0  0  0  0  0  0  0  0  0
   -7.9160    3.7530  -24.5780 C   0  0  0  0  0  0  0  0  0  0  0  0
   -8.1130   -0.2420  -21.9310 C   0  0  0  0  0  0  0  0  0  0  0  0
   -6.6980   -0.8890  -19.0370 C   0  0  0  0  0  0  0  0  0  0  0  0
  -13.0850   -0.4210  -23.1790 C   0  0  0  0  0  0  0  0  0  0  0  0
  -12.2570    0.5840  -23.6660 C   0  0  0  0  0  0  0  0  0  0  0  0
  -11.1260   -1.7410  -22.6030 C   0  0  0  0  0  0  0  0  0  0  0  0
   -2.7500    1.6980  -20.7610 C   0  0  0  0  0  0  0  0  0  0  0  0
   -3.4450    1.2790  -21.9040 C   0  0  0  0  0  0  0  0  0  0  0  0
  -12.5230   -1.5710  -22.6340 C   0  0  0  0  0  0  0  0  0  0  0  0
  -10.8520    0.4160  -23.7010 C   0  0  0  0  0  0  0  0  0  0  0  0
  -10.2610   -0.7640  -23.1690 C   0  0  0  0  0  0  0  0  0  0  0  0
   -4.9430    0.2910  -18.0970 C   0  0  0  0  0  0  0  0  0  0  0  0
   -3.2410    1.3760  -19.4880 C   0  0  0  0  0  0  0  0  0  0  0  0
   -4.6170    0.5210  -21.7870 C   0  0  0  0  0  0  0  0  0  0  0  0
   -6.2610   -0.5950  -20.3380 C   0  0  0  0  0  0  0  0  0  0  0  0
   -4.4110    0.6100  -19.3590 C   0  0  0  0  0  0  0  0  0  0  0  0
   -5.0920    0.1690  -20.5090 C   0  0  0  0  0  0  0  0  0  0  0  0
   -7.5810    3.9500  -23.2520 N   0  0  0  0  0  0  0  0  0  0  0  0
   -7.0550   -0.9740  -21.4450 N   0  0  0  0  0  0  0  0  0  0  0  0
   -8.6570    1.2790  -24.4910 N   0  0  0  0  0  0  0  0  0  0  0  0
   -7.7210    2.2990  -25.0800 C   0  0  0  0  0  0  0  0  0  0  0  0
   -6.0500    5.4080  -22.0250 C   0  0  0  0  0  0  0  0  0  0  0  0
   -7.4680    5.2520  -22.5750 C   0  0  0  0  0  0  0  0  0  0  0  0
   -7.8740   -3.1250  -24.3800 C   0  0  0  0  0  0  0  0  0  0  0  0
   -6.8390   -2.2050  -22.1890 C   0  0  0  0  0  0  0  0  0  0  0  0
   -8.1310   -0.1150  -24.3910 C   0  0  0  0  0  0  0  0  0  0  0  0
   -8.1170   -2.3660  -23.0510 C   0  0  0  0  0  0  0  0  0  0  0  0
   -8.7100   -0.8990  -23.1730 C   0  0  0  0  0  0  0  0  0  0  0  0
   -7.6090   -1.4680  -18.8750 H   0  0  0  0  0  0  0  0  0  0  0  0
  -14.1650   -0.2980  -23.2120 H   0  0  0  0  0  0  0  0  0  0  0  0
  -12.7210    1.4900  -24.0430 H   0  0  0  0  0  0  0  0  0  0  0  0
  -10.7560   -2.6360  -22.1180 H   0  0  0  0  0  0  0  0  0  0  0  0
   -1.8420    2.2860  -20.8640 H   0  0  0  0  0  0  0  0  0  0  0  0
   -3.0780    1.5470  -22.8870 H   0  0  0  0  0  0  0  0  0  0  0  0
   -4.4830    0.6550  -17.1870 H   0  0  0  0  0  0  0  0  0  0  0  0
   -2.7170    1.7280  -18.6110 H   0  0  0  0  0  0  0  0  0  0  0  0
   -5.1500    0.2200  -22.6860 H   0  0  0  0  0  0  0  0  0  0  0  0
   -7.2110    3.1440  -22.7650 H   0  0  0  0  0  0  0  0  0  0  0  0
   -6.6890    2.0310  -24.8240 H   0  0  0  0  0  0  0  0  0  0  0  0
   -7.8250    2.3000  -26.1710 H   0  0  0  0  0  0  0  0  0  0  0  0
   -5.3190    5.4000  -22.8410 H   0  0  0  0  0  0  0  0  0  0  0  0
   -5.8160    4.5420  -21.3990 H   0  0  0  0  0  0  0  0  0  0  0  0
   -5.9420    6.3380  -21.4460 H   0  0  0  0  0  0  0  0  0  0  0  0
   -8.1960    5.2870  -21.7550 H   0  0  0  0  0  0  0  0  0  0  0  0
   -7.6720    6.0840  -23.2610 H   0  0  0  0  0  0  0  0  0  0  0  0
   -8.8160   -3.3100  -24.9100 H   0  0  0  0  0  0  0  0  0  0  0  0
   -7.2020   -2.5700  -25.0400 H   0  0  0  0  0  0  0  0  0  0  0  0
   -7.4170   -4.1050  -24.2050 H   0  0  0  0  0  0  0  0  0  0  0  0
   -5.9520   -2.0850  -22.8220 H   0  0  0  0  0  0  0  0  0  0  0  0
   -6.6900   -3.0490  -21.5040 H   0  0  0  0  0  0  0  0  0  0  0  0
   -7.0330   -0.0940  -24.3070 H   0  0  0  0  0  0  0  0  0  0  0  0
   -8.4010   -0.6520  -25.3110 H   0  0  0  0  0  0  0  0  0  0  0  0
   -8.7850   -2.9980  -22.4590 H   0  0  0  0  0  0  0  0  0  0  0  0
  6  2  2  0
  7  3  2  0
  8  4  2  0
  9  5  2  0
 11 10  1  0
 14 13  1  0
 15  1  1  0
 15 10  2  0
 15 12  1  0
 16  6  1  0
 16 11  2  0
 17 12  2  0
 17 16  1  0
 18  5  1  0
 19 13  2  0
 20 14  2  0
 21  9  1  0
 22 18  2  0
 22 19  1  0
 23 20  1  0
 23 21  2  0
 23 22  1  0
 24  7  1  0
 25  8  1  0
 25 21  1  0
 26  6  1  0
 27  7  1  0
 27 26  1  0
 29 24  1  0
 29 28  1  0
 31 25  1  0
 32 26  1  0
 33 30  1  0
 33 31  1  0
 34  8  1  0
 34 17  1  0
 34 32  1  0
 34 33  1  0
  9 35  1  0
 10 36  1  0
 11 37  1  0
 12 38  1  0
 13 39  1  0
 14 40  1  0
 18 41  1  0
 19 42  1  0
 20 43  1  0
 24 44  1  0
 27 45  1  0
 27 46  1  0
 28 47  1  0
 28 48  1  0
 28 49  1  0
 29 50  1  0
 29 51  1  0
 30 52  1  0
 30 53  1  0
 30 54  1  0
 31 55  1  0
 31 56  1  0
 32 57  1  0
 32 58  1  0
 33 59  1  0
M  END
>  <Favorite_cresset>
false

>  <Protein_cresset>
sars_P

>  <MW_cresset>
477.0

>  <#Atoms_cresset>
34

>  <SlogP_cresset>
3.4

>  <TPSA_cresset>
82.6

>  <Flexibility_cresset>
3.9

>  <HBA_cresset>
7

>  <HBD_cresset>
1

>  <Rof5_cresset>
0

>  <Confs_cresset>
0

>  <Poses_cresset>
0

$$$$
predicted (54)
  xed2sdf           3D
 
 46 49  0  0  0  0  0  0  0  0999 V2000
   -7.9790    1.5930  -21.9050 O   0  0  0  0  0  0  0  0  0  0  0  0
   -6.0510   -0.3550  -17.9060 N   0  0  0  0  0  0  0  0  0  0  0  0
   -7.2340   -1.7400  -21.9770 N   0  0  0  0  0  0  0  0  0  0  0  0
   -6.7720   -0.6420  -19.0000 C   0  0  0  0  0  0  0  0  0  0  0  0
  -12.7050   -2.6350  -23.1530 C   0  0  0  0  0  0  0  0  0  0  0  0
  -11.9400   -3.8290  -23.7770 C   0  0  0  0  0  0  0  0  0  0  0  0
  -11.9030   -2.1000  -22.0780 C   0  0  0  0  0  0  0  0  0  0  0  0
  -10.6770   -3.4230  -24.4850 C   0  0  0  0  0  0  0  0  0  0  0  0
  -10.3800   -2.0690  -22.3160 C   0  0  0  0  0  0  0  0  0  0  0  0
   -2.5700    1.5090  -20.7450 C   0  0  0  0  0  0  0  0  0  0  0  0
   -3.2840    1.1250  -21.8850 C   0  0  0  0  0  0  0  0  0  0  0  0
   -9.7260   -3.0690  -23.3540 C   0  0  0  0  0  0  0  0  0  0  0  0
   -4.8870    0.2980  -18.0730 C   0  0  0  0  0  0  0  0  0  0  0  0
   -3.1080    1.2780  -19.4710 C   0  0  0  0  0  0  0  0  0  0  0  0
   -4.5550    0.5460  -21.7540 C   0  0  0  0  0  0  0  0  0  0  0  0
   -6.3610   -0.2790  -20.2830 C   0  0  0  0  0  0  0  0  0  0  0  0
   -7.7650   -1.5630  -23.1390 C   0  0  0  0  0  0  0  0  0  0  0  0
   -7.7840    0.4190  -22.1720 C   0  0  0  0  0  0  0  0  0  0  0  0
   -4.3520    0.6330  -19.3310 C   0  0  0  0  0  0  0  0  0  0  0  0
   -5.0950    0.3060  -20.4740 C   0  0  0  0  0  0  0  0  0  0  0  0
   -7.2030   -0.5340  -21.3660 N   0  0  0  0  0  0  0  0  0  0  0  0
   -8.1070   -0.2270  -23.3300 N   0  0  0  0  0  0  0  0  0  0  0  0
   -8.3670   -2.6470  -23.9530 C   0  0  0  0  0  0  0  0  0  0  0  0
   -8.8770    0.3780  -24.4440 C   0  0  0  0  0  0  0  0  0  0  0  0
   -7.7130   -1.1670  -18.8430 H   0  0  0  0  0  0  0  0  0  0  0  0
  -13.6850   -2.9480  -22.7590 H   0  0  0  0  0  0  0  0  0  0  0  0
  -12.8670   -1.7660  -23.8090 H   0  0  0  0  0  0  0  0  0  0  0  0
  -11.6580   -4.3990  -22.9180 H   0  0  0  0  0  0  0  0  0  0  0  0
  -12.5080   -4.5080  -24.4110 H   0  0  0  0  0  0  0  0  0  0  0  0
  -12.2050   -2.6870  -21.2150 H   0  0  0  0  0  0  0  0  0  0  0  0
  -12.2600   -1.0680  -21.9940 H   0  0  0  0  0  0  0  0  0  0  0  0
  -10.2940   -4.2830  -25.0560 H   0  0  0  0  0  0  0  0  0  0  0  0
  -10.8490   -2.5870  -25.1830 H   0  0  0  0  0  0  0  0  0  0  0  0
  -10.2400   -1.0480  -22.6350 H   0  0  0  0  0  0  0  0  0  0  0  0
   -9.8630   -2.1790  -21.3600 H   0  0  0  0  0  0  0  0  0  0  0  0
   -1.5960    1.9810  -20.8470 H   0  0  0  0  0  0  0  0  0  0  0  0
   -2.8580    1.2870  -22.8720 H   0  0  0  0  0  0  0  0  0  0  0  0
   -9.5380   -3.9950  -22.7930 H   0  0  0  0  0  0  0  0  0  0  0  0
   -4.3760    0.5390  -17.1580 H   0  0  0  0  0  0  0  0  0  0  0  0
   -2.5500    1.5970  -18.6050 H   0  0  0  0  0  0  0  0  0  0  0  0
   -5.0980    0.2610  -22.6490 H   0  0  0  0  0  0  0  0  0  0  0  0
   -8.4710   -2.3220  -24.9930 H   0  0  0  0  0  0  0  0  0  0  0  0
   -7.7110   -3.5270  -23.9730 H   0  0  0  0  0  0  0  0  0  0  0  0
   -9.9580    0.2020  -24.3280 H   0  0  0  0  0  0  0  0  0  0  0  0
   -8.5460   -0.0430  -25.3990 H   0  0  0  0  0  0  0  0  0  0  0  0
   -8.7030    1.4620  -24.4510 H   0  0  0  0  0  0  0  0  0  0  0  0
  4  2  2  0
  6  5  1  0
  7  5  1  0
  8  6  1  0
  9  7  1  0
 11 10  1  0
 12  8  1  0
 12  9  1  0
 13  2  1  0
 14 10  2  0
 15 11  2  0
 16  4  1  0
 17  3  2  0
 18  1  2  0
 19 13  2  0
 19 14  1  0
 20 15  1  0
 20 16  2  0
 20 19  1  0
 21  3  1  0
 21 16  1  0
 21 18  1  0
 22 17  1  0
 22 18  1  0
 23 12  1  0
 23 17  1  0
 24 22  1  0
  4 25  1  0
  5 26  1  0
  5 27  1  0
  6 28  1  0
  6 29  1  0
  7 30  1  0
  7 31  1  0
  8 32  1  0
  8 33  1  0
  9 34  1  0
  9 35  1  0
 10 36  1  0
 11 37  1  0
 12 38  1  0
 13 39  1  0
 14 40  1  0
 15 41  1  0
 23 42  1  0
 23 43  1  0
 24 44  1  0
 24 45  1  0
 24 46  1  0
M  END
>  <Favorite_cresset>
false

>  <Protein_cresset>
sars_P

>  <MW_cresset>
322.4

>  <#Atoms_cresset>
24

>  <SlogP_cresset>
4.4

>  <TPSA_cresset>
48.8

>  <Flexibility_cresset>
3.2

>  <HBA_cresset>
5

>  <HBD_cresset>
0

>  <Rof5_cresset>
0

>  <Confs_cresset>
0

>  <Poses_cresset>
0

$$$$
predicted (55)
  xed2sdf           3D
 
 60 65  0  0  1  0  0  0  0  0999 V2000
  -13.6330   -2.9380  -21.8290 Cl  0  0  0  0  0  0  0  0  0  0  0  0
  -10.6470    2.5300  -24.4280 O   0  0  0  0  0  0  0  0  0  0  0  0
   -8.5550    0.6350  -21.3820 O   0  0  0  0  0  0  0  0  0  0  0  0
   -6.1460   -0.5020  -17.9720 N   0  0  0  0  0  0  0  0  0  0  0  0
   -7.7870   -4.5060  -24.4970 O   0  0  0  0  0  0  0  0  0  0  0  0
  -10.1440    1.4350  -24.2400 C   0  0  0  0  0  0  0  0  0  0  0  0
   -8.1660   -0.3780  -21.9320 C   0  0  0  0  0  0  0  0  0  0  0  0
   -6.7780   -0.9740  -19.0650 C   0  0  0  0  0  0  0  0  0  0  0  0
  -13.1760   -0.5930  -23.0930 C   0  0  0  0  0  0  0  0  0  0  0  0
  -12.3680    0.4190  -23.6150 C   0  0  0  0  0  0  0  0  0  0  0  0
  -11.1860   -1.8770  -22.5600 C   0  0  0  0  0  0  0  0  0  0  0  0
   -2.7520    1.4400  -20.8310 C   0  0  0  0  0  0  0  0  0  0  0  0
   -3.4230    0.9690  -21.9700 C   0  0  0  0  0  0  0  0  0  0  0  0
  -12.5880   -1.7380  -22.5630 C   0  0  0  0  0  0  0  0  0  0  0  0
  -10.9600    0.2900  -23.6620 C   0  0  0  0  0  0  0  0  0  0  0  0
  -10.3470   -0.8820  -23.1420 C   0  0  0  0  0  0  0  0  0  0  0  0
   -5.0070    0.1940  -18.1420 C   0  0  0  0  0  0  0  0  0  0  0  0
   -3.2790    1.1950  -19.5540 C   0  0  0  0  0  0  0  0  0  0  0  0
   -4.6090    0.2390  -21.8270 C   0  0  0  0  0  0  0  0  0  0  0  0
   -6.3100   -0.7750  -20.3720 C   0  0  0  0  0  0  0  0  0  0  0  0
   -7.0330    2.8740  -24.1530 C   0  0  0  0  0  0  0  0  0  0  0  0
   -7.4740    3.3360  -22.9490 C   0  0  0  0  0  0  0  0  0  0  0  0
   -5.3550    3.7170  -22.9920 C   0  0  0  0  0  0  0  0  0  0  0  0
   -4.4530    0.4390  -19.4090 C   0  0  0  0  0  0  0  0  0  0  0  0
   -5.1190   -0.0500  -20.5490 C   0  0  0  0  0  0  0  0  0  0  0  0
   -7.1110   -1.1450  -21.4790 N   0  0  0  0  0  0  0  0  0  0  0  0
   -8.8130    1.1710  -24.5670 N   0  0  0  0  0  0  0  0  0  0  0  0
   -5.6800    3.1100  -24.1930 N   0  0  0  0  0  0  0  0  0  0  0  0
   -6.4260    3.8640  -22.2330 N   0  0  0  0  0  0  0  0  0  0  0  0
   -8.0810   -5.1050  -25.7820 C   0  0  0  0  0  0  0  0  0  0  0  0
   -7.9110    2.1960  -25.1760 C   0  0  0  0  0  0  0  0  0  0  0  0
   -8.0880   -3.0990  -24.5400 C   0  0  0  0  0  0  0  0  0  0  0  0
   -6.8940   -2.3700  -22.2570 C   0  0  0  0  0  0  0  0  0  0  0  0
   -8.2200   -0.1690  -24.3960 C   0  0  0  0  0  0  0  0  0  0  0  0
   -8.1890   -2.4670  -23.1250 C   0  0  0  0  0  0  0  0  0  0  0  0
   -8.7900   -0.9910  -23.1800 C   0  0  0  0  0  0  0  0  0  0  0  0
   -7.7150   -1.4990  -18.9020 H   0  0  0  0  0  0  0  0  0  0  0  0
  -14.2580   -0.4830  -23.0760 H   0  0  0  0  0  0  0  0  0  0  0  0
  -12.8590    1.3100  -23.9880 H   0  0  0  0  0  0  0  0  0  0  0  0
  -10.7740   -2.7490  -22.0640 H   0  0  0  0  0  0  0  0  0  0  0  0
   -1.8380    2.0150  -20.9430 H   0  0  0  0  0  0  0  0  0  0  0  0
   -3.0410    1.1860  -22.9640 H   0  0  0  0  0  0  0  0  0  0  0  0
   -4.5520    0.5960  -17.2410 H   0  0  0  0  0  0  0  0  0  0  0  0
   -2.7780    1.6040  -18.6830 H   0  0  0  0  0  0  0  0  0  0  0  0
   -5.1270   -0.0880  -22.7200 H   0  0  0  0  0  0  0  0  0  0  0  0
   -8.4740    3.3030  -22.5510 H   0  0  0  0  0  0  0  0  0  0  0  0
   -4.3440    4.0110  -22.7320 H   0  0  0  0  0  0  0  0  0  0  0  0
   -5.0360    2.8740  -24.9340 H   0  0  0  0  0  0  0  0  0  0  0  0
   -9.1670   -5.1420  -25.9460 H   0  0  0  0  0  0  0  0  0  0  0  0
   -7.6330   -4.5150  -26.5950 H   0  0  0  0  0  0  0  0  0  0  0  0
   -7.6910   -6.1260  -25.8490 H   0  0  0  0  0  0  0  0  0  0  0  0
   -8.4930    2.9560  -25.7100 H   0  0  0  0  0  0  0  0  0  0  0  0
   -7.2750    1.7230  -25.9310 H   0  0  0  0  0  0  0  0  0  0  0  0
   -9.0730   -2.9660  -25.0150 H   0  0  0  0  0  0  0  0  0  0  0  0
   -7.3290   -2.5730  -25.1390 H   0  0  0  0  0  0  0  0  0  0  0  0
   -5.9920   -2.2630  -22.8840 H   0  0  0  0  0  0  0  0  0  0  0  0
   -6.7730   -3.2160  -21.5550 H   0  0  0  0  0  0  0  0  0  0  0  0
   -7.1360   -0.0500  -24.2660 H   0  0  0  0  0  0  0  0  0  0  0  0
   -8.3910   -0.7120  -25.3320 H   0  0  0  0  0  0  0  0  0  0  0  0
   -8.8260   -3.1250  -22.5340 H   0  0  0  0  0  0  0  0  0  0  0  0
  6  2  2  0
  7  3  2  0
  8  4  2  0
 10  9  1  0
 13 12  1  0
 14  1  1  0
 14  9  2  0
 14 11  1  0
 15  6  1  0
 15 10  2  0
 16 11  2  0
 16 15  1  0
 17  4  1  0
 18 12  2  0
 19 13  2  0
 20  8  1  0
 22 21  2  0
 24 17  2  0
 24 18  1  0
 25 19  1  0
 25 20  2  0
 25 24  1  0
 26  7  1  0
 26 20  1  0
 27  6  1  0
 28 21  1  0
 28 23  1  0
 29 22  1  0
 29 23  2  0
 30  5  1  0
 31 21  1  0
 31 27  1  0
 32  5  1  0
 33 26  1  0
 34 27  1  0
 35 32  1  0
 35 33  1  0
 36  7  1  0
 36 16  1  0
 36 34  1  0
 36 35  1  0
  8 37  1  0
  9 38  1  0
 10 39  1  0
 11 40  1  0
 12 41  1  0
 13 42  1  0
 17 43  1  0
 18 44  1  0
 19 45  1  0
 22 46  1  0
 23 47  1  0
 28 48  1  0
 30 49  1  0
 30 50  1  0
 30 51  1  0
 31 52  1  0
 31 53  1  0
 32 54  1  0
 32 55  1  0
 33 56  1  0
 33 57  1  0
 34 58  1  0
 34 59  1  0
 35 60  1  0
M  END
>  <Favorite_cresset>
false

>  <Protein_cresset>
sars_P

>  <MW_cresset>
502.0

>  <#Atoms_cresset>
36

>  <SlogP_cresset>
3.8

>  <TPSA_cresset>
91.4

>  <Flexibility_cresset>
4.9

>  <HBA_cresset>
8

>  <HBD_cresset>
1

>  <Rof5_cresset>
1

>  <Confs_cresset>
0

>  <Poses_cresset>
0

$$$$
predicted (56)
  xed2sdf           3D
 
 57 62  0  0  1  0  0  0  0  0999 V2000
  -10.7160    2.3560  -24.6340 O   0  0  0  0  0  0  0  0  0  0  0  0
   -8.6120    0.6860  -21.5240 O   0  0  0  0  0  0  0  0  0  0  0  0
   -8.0700    4.0010  -23.8090 N   0  0  0  0  0  0  0  0  0  0  0  0
   -6.1200    2.5800  -23.8610 N   0  0  0  0  0  0  0  0  0  0  0  0
   -6.1720   -0.4510  -18.0160 N   0  0  0  0  0  0  0  0  0  0  0  0
  -10.1990    1.2720  -24.4110 C   0  0  0  0  0  0  0  0  0  0  0  0
   -8.2090   -0.3570  -22.0070 C   0  0  0  0  0  0  0  0  0  0  0  0
   -7.3530    2.9510  -24.2680 C   0  0  0  0  0  0  0  0  0  0  0  0
   -7.4940    4.7490  -22.8510 C   0  0  0  0  0  0  0  0  0  0  0  0
   -5.5490    3.3440  -22.9110 C   0  0  0  0  0  0  0  0  0  0  0  0
   -6.8410   -0.8830  -19.0990 C   0  0  0  0  0  0  0  0  0  0  0  0
   -6.2070    4.4610  -22.3690 C   0  0  0  0  0  0  0  0  0  0  0  0
  -13.1670   -0.7730  -23.1380 C   0  0  0  0  0  0  0  0  0  0  0  0
  -12.3900    0.2470  -23.6950 C   0  0  0  0  0  0  0  0  0  0  0  0
  -11.1430   -1.9850  -22.5960 C   0  0  0  0  0  0  0  0  0  0  0  0
   -2.7080    1.3080  -20.9190 C   0  0  0  0  0  0  0  0  0  0  0  0
   -3.3860    0.8240  -22.0470 C   0  0  0  0  0  0  0  0  0  0  0  0
  -12.5390   -1.8910  -22.5920 C   0  0  0  0  0  0  0  0  0  0  0  0
  -10.9830    0.1440  -23.7680 C   0  0  0  0  0  0  0  0  0  0  0  0
  -10.3370   -0.9890  -23.2130 C   0  0  0  0  0  0  0  0  0  0  0  0
   -5.0080    0.1990  -18.2030 C   0  0  0  0  0  0  0  0  0  0  0  0
   -3.2450    1.1190  -19.6360 C   0  0  0  0  0  0  0  0  0  0  0  0
   -4.6110    0.1670  -21.8940 C   0  0  0  0  0  0  0  0  0  0  0  0
   -6.3700   -0.6830  -20.4070 C   0  0  0  0  0  0  0  0  0  0  0  0
   -4.4520    0.4270  -19.4760 C   0  0  0  0  0  0  0  0  0  0  0  0
   -5.1410   -0.0370  -20.6050 C   0  0  0  0  0  0  0  0  0  0  0  0
   -7.1540   -1.0770  -21.5030 N   0  0  0  0  0  0  0  0  0  0  0  0
   -8.8650    1.0220  -24.7350 N   0  0  0  0  0  0  0  0  0  0  0  0
   -8.0090    2.0870  -25.3350 C   0  0  0  0  0  0  0  0  0  0  0  0
   -8.0670   -3.3800  -24.3560 C   0  0  0  0  0  0  0  0  0  0  0  0
   -6.9500   -2.3520  -22.1730 C   0  0  0  0  0  0  0  0  0  0  0  0
   -8.2160   -0.2900  -24.5000 C   0  0  0  0  0  0  0  0  0  0  0  0
   -8.1950   -2.5120  -23.0640 C   0  0  0  0  0  0  0  0  0  0  0  0
   -8.7890   -1.0550  -23.2400 C   0  0  0  0  0  0  0  0  0  0  0  0
  -13.2800   -2.8570  -22.0120 F   0  0  0  0  0  0  0  0  0  0  0  0
   -8.0740    5.5900  -22.4750 H   0  0  0  0  0  0  0  0  0  0  0  0
   -4.5470    3.0650  -22.5970 H   0  0  0  0  0  0  0  0  0  0  0  0
   -7.7860   -1.3960  -18.9110 H   0  0  0  0  0  0  0  0  0  0  0  0
   -5.7350    5.0870  -21.6220 H   0  0  0  0  0  0  0  0  0  0  0  0
  -14.2470   -0.6770  -23.0840 H   0  0  0  0  0  0  0  0  0  0  0  0
  -12.8870    1.1370  -24.0660 H   0  0  0  0  0  0  0  0  0  0  0  0
  -10.7310   -2.8460  -22.0900 H   0  0  0  0  0  0  0  0  0  0  0  0
   -1.7710    1.8420  -21.0400 H   0  0  0  0  0  0  0  0  0  0  0  0
   -2.9840    0.9840  -23.0430 H   0  0  0  0  0  0  0  0  0  0  0  0
   -4.5220    0.5580  -17.3030 H   0  0  0  0  0  0  0  0  0  0  0  0
   -2.7280    1.5120  -18.7700 H   0  0  0  0  0  0  0  0  0  0  0  0
   -5.1460   -0.1680  -22.7770 H   0  0  0  0  0  0  0  0  0  0  0  0
   -8.6090    2.7390  -25.9910 H   0  0  0  0  0  0  0  0  0  0  0  0
   -7.2250    1.6360  -25.9620 H   0  0  0  0  0  0  0  0  0  0  0  0
   -7.0330   -3.5320  -24.6770 H   0  0  0  0  0  0  0  0  0  0  0  0
   -8.6150   -2.9630  -25.2060 H   0  0  0  0  0  0  0  0  0  0  0  0
   -8.5050   -4.3710  -24.1940 H   0  0  0  0  0  0  0  0  0  0  0  0
   -6.0120   -2.3400  -22.7300 H   0  0  0  0  0  0  0  0  0  0  0  0
   -6.8910   -3.1530  -21.4300 H   0  0  0  0  0  0  0  0  0  0  0  0
   -7.1350   -0.1250  -24.3990 H   0  0  0  0  0  0  0  0  0  0  0  0
   -8.3390   -0.8750  -25.4180 H   0  0  0  0  0  0  0  0  0  0  0  0
   -8.8080   -3.0980  -22.3790 H   0  0  0  0  0  0  0  0  0  0  0  0
  6  1  2  0
  7  2  2  0
  8  3  2  0
  8  4  1  0
  9  3  1  0
 10  4  2  0
 11  5  2  0
 12  9  2  0
 12 10  1  0
 14 13  1  0
 17 16  1  0
 18 13  2  0
 18 15  1  0
 19  6  1  0
 19 14  2  0
 20 15  2  0
 20 19  1  0
 21  5  1  0
 22 16  2  0
 23 17  2  0
 24 11  1  0
 25 21  2  0
 25 22  1  0
 26 23  1  0
 26 24  2  0
 26 25  1  0
 27  7  1  0
 27 24  1  0
 28  6  1  0
 29  8  1  0
 29 28  1  0
 31 27  1  0
 32 28  1  0
 33 30  1  0
 33 31  1  0
 34  7  1  0
 34 20  1  0
 34 32  1  0
 34 33  1  0
 35 18  1  0
  9 36  1  0
 10 37  1  0
 11 38  1  0
 12 39  1  0
 13 40  1  0
 14 41  1  0
 15 42  1  0
 16 43  1  0
 17 44  1  0
 21 45  1  0
 22 46  1  0
 23 47  1  0
 29 48  1  0
 29 49  1  0
 30 50  1  0
 30 51  1  0
 30 52  1  0
 31 53  1  0
 31 54  1  0
 32 55  1  0
 32 56  1  0
 33 57  1  0
M  END
>  <Favorite_cresset>
false

>  <Protein_cresset>
sars_P

>  <MW_cresset>
467.5

>  <#Atoms_cresset>
35

>  <SlogP_cresset>
4.0

>  <TPSA_cresset>
79.3

>  <Flexibility_cresset>
2.9

>  <HBA_cresset>
7

>  <HBD_cresset>
0

>  <Rof5_cresset>
0

>  <Confs_cresset>
0

>  <Poses_cresset>
0

$$$$
predicted (57)
  xed2sdf           3D
 
 59 63  0  0  1  0  0  0  0  0999 V2000
  -13.2570   -2.9810  -21.6870 Cl  0  0  0  0  0  0  0  0  0  0  0  0
  -10.9440    2.7320  -24.1870 O   0  0  0  0  0  0  0  0  0  0  0  0
   -5.7850    2.7120  -24.6170 O   0  0  0  0  0  0  0  0  0  0  0  0
   -8.2890    0.9710  -21.5750 O   0  0  0  0  0  0  0  0  0  0  0  0
   -6.0910   -0.5410  -17.9350 N   0  0  0  0  0  0  0  0  0  0  0  0
  -10.3140    1.6930  -24.0860 C   0  0  0  0  0  0  0  0  0  0  0  0
   -6.8710    3.0220  -24.1460 C   0  0  0  0  0  0  0  0  0  0  0  0
   -8.0630   -0.1360  -22.0190 C   0  0  0  0  0  0  0  0  0  0  0  0
   -6.7570   -0.9740  -19.0220 C   0  0  0  0  0  0  0  0  0  0  0  0
  -13.0610   -0.6990  -23.0490 C   0  0  0  0  0  0  0  0  0  0  0  0
  -12.3800    0.4020  -23.5530 C   0  0  0  0  0  0  0  0  0  0  0  0
  -10.9280   -1.7540  -22.5170 C   0  0  0  0  0  0  0  0  0  0  0  0
   -2.8400    1.6500  -20.7690 C   0  0  0  0  0  0  0  0  0  0  0  0
   -3.5460    1.2430  -21.9100 C   0  0  0  0  0  0  0  0  0  0  0  0
  -12.3400   -1.7500  -22.4970 C   0  0  0  0  0  0  0  0  0  0  0  0
  -10.9690    0.4140  -23.6140 C   0  0  0  0  0  0  0  0  0  0  0  0
  -10.2120   -0.7170  -23.1740 C   0  0  0  0  0  0  0  0  0  0  0  0
   -4.9850    0.2080  -18.1010 C   0  0  0  0  0  0  0  0  0  0  0  0
   -3.3290    1.3260  -19.4990 C   0  0  0  0  0  0  0  0  0  0  0  0
   -4.7260    0.4900  -21.7840 C   0  0  0  0  0  0  0  0  0  0  0  0
   -6.3690   -0.6600  -20.3270 C   0  0  0  0  0  0  0  0  0  0  0  0
   -4.4890    0.5430  -19.3660 C   0  0  0  0  0  0  0  0  0  0  0  0
   -5.1930    0.1130  -20.5110 C   0  0  0  0  0  0  0  0  0  0  0  0
   -7.0080    3.6410  -22.9150 N   0  0  0  0  0  0  0  0  0  0  0  0
   -7.2240   -1.0230  -21.4030 N   0  0  0  0  0  0  0  0  0  0  0  0
   -8.9580    1.6210  -24.3760 N   0  0  0  0  0  0  0  0  0  0  0  0
   -5.8850    4.0200  -22.0420 C   0  0  0  0  0  0  0  0  0  0  0  0
   -8.1950    2.7890  -24.9010 C   0  0  0  0  0  0  0  0  0  0  0  0
   -6.5320   -1.9740  -24.4710 C   0  0  0  0  0  0  0  0  0  0  0  0
   -8.6000   -3.3760  -23.9460 C   0  0  0  0  0  0  0  0  0  0  0  0
   -7.1860   -2.3140  -22.0790 C   0  0  0  0  0  0  0  0  0  0  0  0
   -8.2800    0.3210  -24.4640 C   0  0  0  0  0  0  0  0  0  0  0  0
   -7.7920   -2.0870  -23.5020 C   0  0  0  0  0  0  0  0  0  0  0  0
   -8.6380   -0.6970  -23.3260 C   0  0  0  0  0  0  0  0  0  0  0  0
   -7.6630   -1.5510  -18.8340 H   0  0  0  0  0  0  0  0  0  0  0  0
  -14.1460   -0.7040  -23.0170 H   0  0  0  0  0  0  0  0  0  0  0  0
  -12.9580    1.2560  -23.8900 H   0  0  0  0  0  0  0  0  0  0  0  0
  -10.3980   -2.5680  -22.0330 H   0  0  0  0  0  0  0  0  0  0  0  0
   -1.9330    2.2430  -20.8690 H   0  0  0  0  0  0  0  0  0  0  0  0
   -3.1870    1.5220  -22.8960 H   0  0  0  0  0  0  0  0  0  0  0  0
   -4.5100    0.5730  -17.1930 H   0  0  0  0  0  0  0  0  0  0  0  0
   -2.8000    1.6750  -18.6230 H   0  0  0  0  0  0  0  0  0  0  0  0
   -5.2650    0.2040  -22.6780 H   0  0  0  0  0  0  0  0  0  0  0  0
   -7.9460    3.8560  -22.5990 H   0  0  0  0  0  0  0  0  0  0  0  0
   -4.9280    3.9490  -22.5720 H   0  0  0  0  0  0  0  0  0  0  0  0
   -5.8560    3.3500  -21.1760 H   0  0  0  0  0  0  0  0  0  0  0  0
   -6.0300    5.0520  -21.6980 H   0  0  0  0  0  0  0  0  0  0  0  0
   -7.9720    2.6300  -25.9640 H   0  0  0  0  0  0  0  0  0  0  0  0
   -8.7900    3.7060  -24.8020 H   0  0  0  0  0  0  0  0  0  0  0  0
   -5.6580   -1.5300  -23.9690 H   0  0  0  0  0  0  0  0  0  0  0  0
   -6.7310   -1.4320  -25.4050 H   0  0  0  0  0  0  0  0  0  0  0  0
   -6.2130   -2.9680  -24.8000 H   0  0  0  0  0  0  0  0  0  0  0  0
   -9.6770   -3.2320  -24.0620 H   0  0  0  0  0  0  0  0  0  0  0  0
   -8.2690   -3.7500  -24.9220 H   0  0  0  0  0  0  0  0  0  0  0  0
   -8.4420   -4.2020  -23.2350 H   0  0  0  0  0  0  0  0  0  0  0  0
   -6.1620   -2.7030  -22.1190 H   0  0  0  0  0  0  0  0  0  0  0  0
   -7.7940   -3.0300  -21.5190 H   0  0  0  0  0  0  0  0  0  0  0  0
   -7.2020    0.5130  -24.4350 H   0  0  0  0  0  0  0  0  0  0  0  0
   -8.5270   -0.1140  -25.4410 H   0  0  0  0  0  0  0  0  0  0  0  0
  6  2  2  0
  7  3  2  0
  8  4  2  0
  9  5  2  0
 11 10  1  0
 14 13  1  0
 15  1  1  0
 15 10  2  0
 15 12  1  0
 16  6  1  0
 16 11  2  0
 17 12  2  0
 17 16  1  0
 18  5  1  0
 19 13  2  0
 20 14  2  0
 21  9  1  0
 22 18  2  0
 22 19  1  0
 23 20  1  0
 23 21  2  0
 23 22  1  0
 24  7  1  0
 25  8  1  0
 25 21  1  0
 26  6  1  0
 27 24  1  0
 28  7  1  0
 28 26  1  0
 31 25  1  0
 32 26  1  0
 33 29  1  0
 33 30  1  0
 33 31  1  0
 34  8  1  0
 34 17  1  0
 34 32  1  0
 34 33  1  0
  9 35  1  0
 10 36  1  0
 11 37  1  0
 12 38  1  0
 13 39  1  0
 14 40  1  0
 18 41  1  0
 19 42  1  0
 20 43  1  0
 24 44  1  0
 27 45  1  0
 27 46  1  0
 27 47  1  0
 28 48  1  0
 28 49  1  0
 29 50  1  0
 29 51  1  0
 29 52  1  0
 30 53  1  0
 30 54  1  0
 30 55  1  0
 31 56  1  0
 31 57  1  0
 32 58  1  0
 32 59  1  0
M  END
>  <Favorite_cresset>
false

>  <Protein_cresset>
sars_P

>  <MW_cresset>
477.0

>  <#Atoms_cresset>
34

>  <SlogP_cresset>
3.4

>  <TPSA_cresset>
82.6

>  <Flexibility_cresset>
2.9

>  <HBA_cresset>
7

>  <HBD_cresset>
1

>  <Rof5_cresset>
0

>  <Confs_cresset>
0

>  <Poses_cresset>
0

$$$$
predicted (58)
  xed2sdf           3D
 
 42 45  0  0  1  0  0  0  0  0999 V2000
  -13.3110   -2.5280  -22.4230 Cl  0  0  0  0  0  0  0  0  0  0  0  0
   -8.6560    1.4070  -25.4670 O   0  0  0  0  0  0  0  0  0  0  0  0
   -8.2390   -0.1000  -21.5500 O   0  0  0  0  0  0  0  0  0  0  0  0
   -6.0480   -0.4360  -17.8530 N   0  0  0  0  0  0  0  0  0  0  0  0
   -8.5230    0.3270  -24.9170 C   0  0  0  0  0  0  0  0  0  0  0  0
   -7.6850   -1.1280  -21.9190 C   0  0  0  0  0  0  0  0  0  0  0  0
   -6.5600   -1.0870  -18.9100 C   0  0  0  0  0  0  0  0  0  0  0  0
  -12.0940   -0.5920  -23.9730 C   0  0  0  0  0  0  0  0  0  0  0  0
  -10.9780    0.1240  -24.4340 C   0  0  0  0  0  0  0  0  0  0  0  0
  -10.6250   -2.1990  -22.9030 C   0  0  0  0  0  0  0  0  0  0  0  0
   -2.5430    1.4070  -20.6840 C   0  0  0  0  0  0  0  0  0  0  0  0
   -3.1010    0.7700  -21.8060 C   0  0  0  0  0  0  0  0  0  0  0  0
  -11.9230   -1.7410  -23.1740 C   0  0  0  0  0  0  0  0  0  0  0  0
   -9.6920   -0.3900  -24.2780 C   0  0  0  0  0  0  0  0  0  0  0  0
   -9.5200   -1.5460  -23.4930 C   0  0  0  0  0  0  0  0  0  0  0  0
   -4.9410    0.3060  -18.0300 C   0  0  0  0  0  0  0  0  0  0  0  0
   -3.1530    1.2580  -19.4280 C   0  0  0  0  0  0  0  0  0  0  0  0
   -4.2430   -0.0390  -21.6550 C   0  0  0  0  0  0  0  0  0  0  0  0
   -5.9780   -1.0160  -20.1830 C   0  0  0  0  0  0  0  0  0  0  0  0
   -4.2920    0.4460  -19.2720 C   0  0  0  0  0  0  0  0  0  0  0  0
   -4.8310   -0.2200  -20.3840 C   0  0  0  0  0  0  0  0  0  0  0  0
   -6.6100   -1.6520  -21.2520 N   0  0  0  0  0  0  0  0  0  0  0  0
   -7.2940   -0.3240  -24.8800 N   0  0  0  0  0  0  0  0  0  0  0  0
   -6.0930    0.2960  -25.4900 C   0  0  0  0  0  0  0  0  0  0  0  0
   -7.1460   -1.6860  -24.3290 C   0  0  0  0  0  0  0  0  0  0  0  0
   -8.1090   -1.9400  -23.1390 C   0  0  0  0  0  0  0  0  0  0  0  0
   -7.4810   -1.6510  -18.7420 H   0  0  0  0  0  0  0  0  0  0  0  0
  -13.0850   -0.2240  -24.2120 H   0  0  0  0  0  0  0  0  0  0  0  0
  -11.0980    1.0830  -24.9320 H   0  0  0  0  0  0  0  0  0  0  0  0
  -10.4830   -3.0260  -22.2080 H   0  0  0  0  0  0  0  0  0  0  0  0
   -1.6500    2.0180  -20.7840 H   0  0  0  0  0  0  0  0  0  0  0  0
   -2.6500    0.9020  -22.7860 H   0  0  0  0  0  0  0  0  0  0  0  0
   -4.5990    0.8280  -17.1440 H   0  0  0  0  0  0  0  0  0  0  0  0
   -2.7390    1.7870  -18.5840 H   0  0  0  0  0  0  0  0  0  0  0  0
   -4.6740   -0.5040  -22.5350 H   0  0  0  0  0  0  0  0  0  0  0  0
   -6.1690   -2.4860  -21.6160 H   0  0  0  0  0  0  0  0  0  0  0  0
   -5.1810   -0.1390  -25.0650 H   0  0  0  0  0  0  0  0  0  0  0  0
   -6.0990    0.1320  -26.5770 H   0  0  0  0  0  0  0  0  0  0  0  0
   -6.0810    1.3800  -25.2970 H   0  0  0  0  0  0  0  0  0  0  0  0
   -6.1030   -1.8560  -24.0320 H   0  0  0  0  0  0  0  0  0  0  0  0
   -7.3730   -2.3970  -25.1310 H   0  0  0  0  0  0  0  0  0  0  0  0
   -8.0550   -3.0010  -22.8660 H   0  0  0  0  0  0  0  0  0  0  0  0
  5  2  2  0
  6  3  2  0
  7  4  2  0
  9  8  1  0
 12 11  1  0
 13  1  1  0
 13  8  2  0
 13 10  1  0
 14  5  1  0
 14  9  2  0
 15 10  2  0
 15 14  1  0
 16  4  1  0
 17 11  2  0
 18 12  2  0
 19  7  1  0
 20 16  2  0
 20 17  1  0
 21 18  1  0
 21 19  2  0
 21 20  1  0
 22  6  1  0
 22 19  1  0
 23  5  1  0
 24 23  1  0
 25 23  1  0
 26  6  1  0
 26 15  1  0
 26 25  1  0
  7 27  1  0
  8 28  1  0
  9 29  1  0
 10 30  1  0
 11 31  1  0
 12 32  1  0
 16 33  1  0
 17 34  1  0
 18 35  1  0
 22 36  1  0
 24 37  1  0
 24 38  1  0
 24 39  1  0
 25 40  1  0
 25 41  1  0
 26 42  1  0
M  END
>  <Favorite_cresset>
false

>  <Protein_cresset>
sars_P

>  <MW_cresset>
365.8

>  <#Atoms_cresset>
26

>  <SlogP_cresset>
3.7

>  <TPSA_cresset>
62.3

>  <Flexibility_cresset>
1.6

>  <HBA_cresset>
5

>  <HBD_cresset>
1

>  <Rof5_cresset>
0

>  <Confs_cresset>
0

>  <Poses_cresset>
0

$$$$
predicted (59)
  xed2sdf           3D
 
 61 66  0  0  1  0  0  0  0  0999 V2000
  -13.6250   -2.9640  -21.7490 Cl  0  0  0  0  0  0  0  0  0  0  0  0
  -10.7100    2.5560  -24.2560 O   0  0  0  0  0  0  0  0  0  0  0  0
   -5.7240    2.6480  -24.3250 O   0  0  0  0  0  0  0  0  0  0  0  0
   -8.5290    0.7780  -21.4130 O   0  0  0  0  0  0  0  0  0  0  0  0
   -6.5010   -6.5290  -24.5230 N   0  0  0  0  0  0  0  0  0  0  0  0
   -7.5200   -5.6340  -24.7660 N   0  0  0  0  0  0  0  0  0  0  0  0
   -5.8430   -4.6530  -23.7800 N   0  0  0  0  0  0  0  0  0  0  0  0
   -6.0860   -0.4390  -17.8680 N   0  0  0  0  0  0  0  0  0  0  0  0
   -5.4850   -5.9500  -23.9310 N   0  0  0  0  0  0  0  0  0  0  0  0
  -10.2000    1.4540  -24.1220 C   0  0  0  0  0  0  0  0  0  0  0  0
   -6.9160    2.8320  -24.1480 C   0  0  0  0  0  0  0  0  0  0  0  0
   -8.1800   -0.2950  -21.8660 C   0  0  0  0  0  0  0  0  0  0  0  0
   -7.1040   -4.4810  -24.2790 C   0  0  0  0  0  0  0  0  0  0  0  0
   -6.7550   -0.8910  -18.9470 C   0  0  0  0  0  0  0  0  0  0  0  0
  -13.2080   -0.6270  -23.0230 C   0  0  0  0  0  0  0  0  0  0  0  0
  -12.4150    0.4010  -23.5320 C   0  0  0  0  0  0  0  0  0  0  0  0
  -11.1900   -1.8840  -22.4920 C   0  0  0  0  0  0  0  0  0  0  0  0
   -2.7040    1.4450  -20.7770 C   0  0  0  0  0  0  0  0  0  0  0  0
   -3.4110    0.9960  -21.9000 C   0  0  0  0  0  0  0  0  0  0  0  0
  -12.5950   -1.7560  -22.4830 C   0  0  0  0  0  0  0  0  0  0  0  0
  -11.0010    0.2930  -23.5650 C   0  0  0  0  0  0  0  0  0  0  0  0
  -10.3570   -0.8780  -23.0640 C   0  0  0  0  0  0  0  0  0  0  0  0
   -4.9470    0.2500  -18.0590 C   0  0  0  0  0  0  0  0  0  0  0  0
   -3.2200    1.2210  -19.4950 C   0  0  0  0  0  0  0  0  0  0  0  0
   -4.6220    0.3140  -21.7540 C   0  0  0  0  0  0  0  0  0  0  0  0
   -6.3240   -0.6510  -20.2630 C   0  0  0  0  0  0  0  0  0  0  0  0
   -4.4140    0.5020  -19.3330 C   0  0  0  0  0  0  0  0  0  0  0  0
   -5.1170    0.0440  -20.4650 C   0  0  0  0  0  0  0  0  0  0  0  0
   -7.4090    3.6030  -23.1070 N   0  0  0  0  0  0  0  0  0  0  0  0
   -7.1410   -1.0400  -21.3540 N   0  0  0  0  0  0  0  0  0  0  0  0
   -8.8550    1.2120  -24.4300 N   0  0  0  0  0  0  0  0  0  0  0  0
   -6.6100    4.4830  -22.2330 C   0  0  0  0  0  0  0  0  0  0  0  0
   -7.9900    2.2400  -25.0920 C   0  0  0  0  0  0  0  0  0  0  0  0
   -7.8390   -3.1510  -24.3890 C   0  0  0  0  0  0  0  0  0  0  0  0
   -6.9060   -2.2630  -22.1030 C   0  0  0  0  0  0  0  0  0  0  0  0
   -8.2550   -0.1380  -24.3150 C   0  0  0  0  0  0  0  0  0  0  0  0
   -8.1440   -2.4260  -23.0290 C   0  0  0  0  0  0  0  0  0  0  0  0
   -8.7900   -0.9640  -23.1050 C   0  0  0  0  0  0  0  0  0  0  0  0
   -5.2240   -3.9710  -23.3590 H   0  0  0  0  0  0  0  0  0  0  0  0
   -7.6820   -1.4350  -18.7540 H   0  0  0  0  0  0  0  0  0  0  0  0
  -14.2920   -0.5330  -23.0290 H   0  0  0  0  0  0  0  0  0  0  0  0
  -12.9170    1.2900  -23.9100 H   0  0  0  0  0  0  0  0  0  0  0  0
  -10.7850   -2.7670  -22.0130 H   0  0  0  0  0  0  0  0  0  0  0  0
   -1.7720    1.9840  -20.9090 H   0  0  0  0  0  0  0  0  0  0  0  0
   -3.0250    1.1920  -22.8920 H   0  0  0  0  0  0  0  0  0  0  0  0
   -4.4690    0.6250  -17.1630 H   0  0  0  0  0  0  0  0  0  0  0  0
   -2.6910    1.6090  -18.6350 H   0  0  0  0  0  0  0  0  0  0  0  0
   -5.1680    0.0050  -22.6420 H   0  0  0  0  0  0  0  0  0  0  0  0
   -8.4140    3.6840  -23.0510 H   0  0  0  0  0  0  0  0  0  0  0  0
   -5.5300    4.3720  -22.4040 H   0  0  0  0  0  0  0  0  0  0  0  0
   -6.8330    4.2260  -21.1980 H   0  0  0  0  0  0  0  0  0  0  0  0
   -6.9050    5.5300  -22.3890 H   0  0  0  0  0  0  0  0  0  0  0  0
   -7.4860    1.8030  -25.9670 H   0  0  0  0  0  0  0  0  0  0  0  0
   -8.6080    3.0710  -25.4500 H   0  0  0  0  0  0  0  0  0  0  0  0
   -8.8020   -3.3320  -24.8860 H   0  0  0  0  0  0  0  0  0  0  0  0
   -7.2460   -2.4850  -25.0290 H   0  0  0  0  0  0  0  0  0  0  0  0
   -5.9810   -2.1420  -22.6830 H   0  0  0  0  0  0  0  0  0  0  0  0
   -6.8020   -3.1150  -21.4190 H   0  0  0  0  0  0  0  0  0  0  0  0
   -7.1690   -0.0220  -24.1900 H   0  0  0  0  0  0  0  0  0  0  0  0
   -8.4580   -0.6670  -25.2550 H   0  0  0  0  0  0  0  0  0  0  0  0
   -8.8280   -3.0780  -22.4870 H   0  0  0  0  0  0  0  0  0  0  0  0
  6  5  1  0
  9  5  2  0
  9  7  1  0
 10  2  2  0
 11  3  2  0
 12  4  2  0
 13  6  2  0
 13  7  1  0
 14  8  2  0
 16 15  1  0
 19 18  1  0
 20  1  1  0
 20 15  2  0
 20 17  1  0
 21 10  1  0
 21 16  2  0
 22 17  2  0
 22 21  1  0
 23  8  1  0
 24 18  2  0
 25 19  2  0
 26 14  1  0
 27 23  2  0
 27 24  1  0
 28 25  1  0
 28 26  2  0
 28 27  1  0
 29 11  1  0
 30 12  1  0
 30 26  1  0
 31 10  1  0
 32 29  1  0
 33 11  1  0
 33 31  1  0
 34 13  1  0
 35 30  1  0
 36 31  1  0
 37 34  1  0
 37 35  1  0
 38 12  1  0
 38 22  1  0
 38 36  1  0
 38 37  1  0
  7 39  1  0
 14 40  1  0
 15 41  1  0
 16 42  1  0
 17 43  1  0
 18 44  1  0
 19 45  1  0
 23 46  1  0
 24 47  1  0
 25 48  1  0
 29 49  1  0
 32 50  1  0
 32 51  1  0
 32 52  1  0
 33 53  1  0
 33 54  1  0
 34 55  1  0
 34 56  1  0
 35 57  1  0
 35 58  1  0
 36 59  1  0
 36 60  1  0
 37 61  1  0
M  END
>  <Favorite_cresset>
false

>  <Protein_cresset>
sars_P

>  <MW_cresset>
531.0

>  <#Atoms_cresset>
38

>  <SlogP_cresset>
1.8

>  <TPSA_cresset>
137.1

>  <Flexibility_cresset>
4.9

>  <HBA_cresset>
11

>  <HBD_cresset>
2

>  <Rof5_cresset>
2

>  <Confs_cresset>
0

>  <Poses_cresset>
0

$$$$
predicted (60)
  xed2sdf           3D
 
 62 67  0  0  1  0  0  0  0  0999 V2000
  -10.8390    2.2320  -24.4090 O   0  0  0  0  0  0  0  0  0  0  0  0
   -8.7370    0.4680  -21.4120 O   0  0  0  0  0  0  0  0  0  0  0  0
   -6.1910   -0.5810  -17.9820 N   0  0  0  0  0  0  0  0  0  0  0  0
   -5.3220    3.3960  -23.3270 N   0  0  0  0  0  0  0  0  0  0  0  0
  -10.3400    1.1320  -24.2270 C   0  0  0  0  0  0  0  0  0  0  0  0
   -8.3450   -0.5710  -21.9040 C   0  0  0  0  0  0  0  0  0  0  0  0
   -6.3090    3.4770  -22.4440 C   0  0  0  0  0  0  0  0  0  0  0  0
   -6.8880   -1.0450  -19.0330 C   0  0  0  0  0  0  0  0  0  0  0  0
  -13.3190   -0.8900  -22.9670 C   0  0  0  0  0  0  0  0  0  0  0  0
  -12.5350    0.1220  -23.5330 C   0  0  0  0  0  0  0  0  0  0  0  0
  -11.3040   -2.1450  -22.4660 C   0  0  0  0  0  0  0  0  0  0  0  0
   -2.8520    1.1810  -21.0060 C   0  0  0  0  0  0  0  0  0  0  0  0
   -3.5730    0.6920  -22.1060 C   0  0  0  0  0  0  0  0  0  0  0  0
   -7.4940    2.9200  -22.9950 C   0  0  0  0  0  0  0  0  0  0  0  0
  -12.7000   -2.0200  -22.4350 C   0  0  0  0  0  0  0  0  0  0  0  0
  -11.1300    0.0010  -23.6070 C   0  0  0  0  0  0  0  0  0  0  0  0
  -10.4940   -1.1550  -23.0820 C   0  0  0  0  0  0  0  0  0  0  0  0
   -5.0390    0.0730  -18.2110 C   0  0  0  0  0  0  0  0  0  0  0  0
   -3.3360    0.9900  -19.7030 C   0  0  0  0  0  0  0  0  0  0  0  0
   -4.7780    0.0110  -21.9080 C   0  0  0  0  0  0  0  0  0  0  0  0
   -6.4600   -0.8710  -20.3570 C   0  0  0  0  0  0  0  0  0  0  0  0
   -7.2070    2.4980  -24.2560 C   0  0  0  0  0  0  0  0  0  0  0  0
   -4.5300    0.2860  -19.5020 C   0  0  0  0  0  0  0  0  0  0  0  0
   -5.2520   -0.1990  -20.6010 C   0  0  0  0  0  0  0  0  0  0  0  0
   -7.2790   -1.2870  -21.4220 N   0  0  0  0  0  0  0  0  0  0  0  0
   -9.0240    0.8580  -24.5820 N   0  0  0  0  0  0  0  0  0  0  0  0
   -5.8760    2.8060  -24.4430 N   0  0  0  0  0  0  0  0  0  0  0  0
   -8.1720    1.8760  -25.2370 C   0  0  0  0  0  0  0  0  0  0  0  0
   -4.8480    3.9580  -26.4280 C   0  0  0  0  0  0  0  0  0  0  0  0
   -5.0940    2.6280  -25.6730 C   0  0  0  0  0  0  0  0  0  0  0  0
   -8.2350   -3.5600  -24.2890 C   0  0  0  0  0  0  0  0  0  0  0  0
   -7.0920   -2.5580  -22.1030 C   0  0  0  0  0  0  0  0  0  0  0  0
   -8.3950   -0.4710  -24.3890 C   0  0  0  0  0  0  0  0  0  0  0  0
   -8.3570   -2.7120  -22.9790 C   0  0  0  0  0  0  0  0  0  0  0  0
   -8.9480   -1.2490  -23.1320 C   0  0  0  0  0  0  0  0  0  0  0  0
  -13.4520   -2.9630  -21.8340 F   0  0  0  0  0  0  0  0  0  0  0  0
   -6.1320    3.9420  -21.4790 H   0  0  0  0  0  0  0  0  0  0  0  0
   -7.8240   -1.5580  -18.8050 H   0  0  0  0  0  0  0  0  0  0  0  0
  -14.3950   -0.7720  -22.8830 H   0  0  0  0  0  0  0  0  0  0  0  0
  -13.0220    1.0190  -23.9020 H   0  0  0  0  0  0  0  0  0  0  0  0
  -10.8830   -3.0090  -21.9730 H   0  0  0  0  0  0  0  0  0  0  0  0
   -1.9210    1.7150  -21.1630 H   0  0  0  0  0  0  0  0  0  0  0  0
   -3.2100    0.8460  -23.1170 H   0  0  0  0  0  0  0  0  0  0  0  0
   -8.4620    2.8630  -22.5160 H   0  0  0  0  0  0  0  0  0  0  0  0
   -4.5240    0.4510  -17.3370 H   0  0  0  0  0  0  0  0  0  0  0  0
   -2.7930    1.3900  -18.8560 H   0  0  0  0  0  0  0  0  0  0  0  0
   -5.3380   -0.3440  -22.7660 H   0  0  0  0  0  0  0  0  0  0  0  0
   -7.6200    1.3870  -26.0490 H   0  0  0  0  0  0  0  0  0  0  0  0
   -8.7740    2.6670  -25.7110 H   0  0  0  0  0  0  0  0  0  0  0  0
   -3.7770    4.1440  -26.5460 H   0  0  0  0  0  0  0  0  0  0  0  0
   -5.2890    3.9340  -27.4290 H   0  0  0  0  0  0  0  0  0  0  0  0
   -5.2780    4.8250  -25.9130 H   0  0  0  0  0  0  0  0  0  0  0  0
   -4.1430    2.1270  -25.4420 H   0  0  0  0  0  0  0  0  0  0  0  0
   -5.6400    1.9450  -26.3310 H   0  0  0  0  0  0  0  0  0  0  0  0
   -7.2030   -3.6980  -24.6230 H   0  0  0  0  0  0  0  0  0  0  0  0
   -8.7900   -3.1310  -25.1290 H   0  0  0  0  0  0  0  0  0  0  0  0
   -8.6600   -4.5590  -24.1400 H   0  0  0  0  0  0  0  0  0  0  0  0
   -6.1600   -2.5410  -22.6720 H   0  0  0  0  0  0  0  0  0  0  0  0
   -7.0130   -3.3640  -21.3680 H   0  0  0  0  0  0  0  0  0  0  0  0
   -7.3070   -0.3360  -24.3170 H   0  0  0  0  0  0  0  0  0  0  0  0
   -8.5540   -1.0350  -25.3130 H   0  0  0  0  0  0  0  0  0  0  0  0
   -8.9720   -3.3010  -22.2950 H   0  0  0  0  0  0  0  0  0  0  0  0
  5  1  2  0
  6  2  2  0
  7  4  2  0
  8  3  2  0
 10  9  1  0
 13 12  1  0
 14  7  1  0
 15  9  2  0
 15 11  1  0
 16  5  1  0
 16 10  2  0
 17 11  2  0
 17 16  1  0
 18  3  1  0
 19 12  2  0
 20 13  2  0
 21  8  1  0
 22 14  2  0
 23 18  2  0
 23 19  1  0
 24 20  1  0
 24 21  2  0
 24 23  1  0
 25  6  1  0
 25 21  1  0
 26  5  1  0
 27  4  1  0
 27 22  1  0
 28 22  1  0
 28 26  1  0
 30 27  1  0
 30 29  1  0
 32 25  1  0
 33 26  1  0
 34 31  1  0
 34 32  1  0
 35  6  1  0
 35 17  1  0
 35 33  1  0
 35 34  1  0
 36 15  1  0
  7 37  1  0
  8 38  1  0
  9 39  1  0
 10 40  1  0
 11 41  1  0
 12 42  1  0
 13 43  1  0
 14 44  1  0
 18 45  1  0
 19 46  1  0
 20 47  1  0
 28 48  1  0
 28 49  1  0
 29 50  1  0
 29 51  1  0
 29 52  1  0
 30 53  1  0
 30 54  1  0
 31 55  1  0
 31 56  1  0
 31 57  1  0
 32 58  1  0
 32 59  1  0
 33 60  1  0
 33 61  1  0
 34 62  1  0
M  END
>  <Favorite_cresset>
false

>  <Protein_cresset>
sars_P

>  <MW_cresset>
483.5

>  <#Atoms_cresset>
36

>  <SlogP_cresset>
4.4

>  <TPSA_cresset>
71.3

>  <Flexibility_cresset>
3.9

>  <HBA_cresset>
7

>  <HBD_cresset>
0

>  <Rof5_cresset>
0

>  <Confs_cresset>
0

>  <Poses_cresset>
0

$$$$
predicted (61)
  xed2sdf           3D
 
 44 47  0  0  0  0  0  0  0  0999 V2000
   -7.5360    0.4570  -21.5860 O   0  0  0  0  0  0  0  0  0  0  0  0
   -5.8850   -0.4220  -17.8180 N   0  0  0  0  0  0  0  0  0  0  0  0
   -7.4930   -0.6880  -22.0120 C   0  0  0  0  0  0  0  0  0  0  0  0
   -6.4090   -1.1780  -18.8020 C   0  0  0  0  0  0  0  0  0  0  0  0
   -2.6620    1.3780  -20.9600 C   0  0  0  0  0  0  0  0  0  0  0  0
   -3.2750    0.6790  -22.0060 C   0  0  0  0  0  0  0  0  0  0  0  0
   -4.8420    0.3760  -18.1130 C   0  0  0  0  0  0  0  0  0  0  0  0
   -3.1620    1.2700  -19.6530 C   0  0  0  0  0  0  0  0  0  0  0  0
   -4.3510   -0.1750  -21.7440 C   0  0  0  0  0  0  0  0  0  0  0  0
   -5.9350   -1.1460  -20.1230 C   0  0  0  0  0  0  0  0  0  0  0  0
   -4.2630    0.4370  -19.3900 C   0  0  0  0  0  0  0  0  0  0  0  0
   -4.8340   -0.3190  -20.4270 C   0  0  0  0  0  0  0  0  0  0  0  0
   -8.1880   -1.0600  -23.1680 N   0  0  0  0  0  0  0  0  0  0  0  0
   -6.7480   -1.8010  -21.2250 C   0  0  0  0  0  0  0  0  0  0  0  0
   -8.6340   -2.4520  -23.3290 C   0  0  0  0  0  0  0  0  0  0  0  0
   -9.1930   -0.1260  -23.7250 C   0  0  0  0  0  0  0  0  0  0  0  0
  -12.5670   -2.9860  -23.1620 C   0  0  0  0  0  0  0  0  0  0  0  0
   -9.8380   -2.6390  -22.3910 C   0  0  0  0  0  0  0  0  0  0  0  0
  -10.4280   -0.2250  -22.8020 C   0  0  0  0  0  0  0  0  0  0  0  0
  -11.7220   -2.0400  -24.0960 C   0  0  0  0  0  0  0  0  0  0  0  0
  -12.3330   -1.9730  -22.1160 C   0  0  0  0  0  0  0  0  0  0  0  0
  -10.9740   -1.6750  -22.7980 C   0  0  0  0  0  0  0  0  0  0  0  0
   -7.2820   -1.7770  -18.5370 H   0  0  0  0  0  0  0  0  0  0  0  0
   -1.8120    2.0210  -21.1660 H   0  0  0  0  0  0  0  0  0  0  0  0
   -2.9180    0.7920  -23.0250 H   0  0  0  0  0  0  0  0  0  0  0  0
   -4.5080    1.0270  -17.3120 H   0  0  0  0  0  0  0  0  0  0  0  0
   -2.7010    1.8340  -18.8520 H   0  0  0  0  0  0  0  0  0  0  0  0
   -4.8090   -0.6980  -22.5770 H   0  0  0  0  0  0  0  0  0  0  0  0
   -7.4600   -2.5120  -20.7920 H   0  0  0  0  0  0  0  0  0  0  0  0
   -6.1140   -2.3850  -21.9020 H   0  0  0  0  0  0  0  0  0  0  0  0
   -7.8350   -3.1710  -23.1150 H   0  0  0  0  0  0  0  0  0  0  0  0
   -8.9620   -2.6080  -24.3680 H   0  0  0  0  0  0  0  0  0  0  0  0
   -8.7980    0.9000  -23.7810 H   0  0  0  0  0  0  0  0  0  0  0  0
   -9.4650   -0.4450  -24.7430 H   0  0  0  0  0  0  0  0  0  0  0  0
  -13.6410   -3.1070  -23.2120 H   0  0  0  0  0  0  0  0  0  0  0  0
  -12.1400   -3.9820  -23.0390 H   0  0  0  0  0  0  0  0  0  0  0  0
   -9.5620   -2.4120  -21.3530 H   0  0  0  0  0  0  0  0  0  0  0  0
  -10.1400   -3.6890  -22.3990 H   0  0  0  0  0  0  0  0  0  0  0  0
  -11.1900    0.5210  -23.0640 H   0  0  0  0  0  0  0  0  0  0  0  0
  -10.0850    0.0350  -21.7970 H   0  0  0  0  0  0  0  0  0  0  0  0
  -12.2450   -1.1810  -24.5510 H   0  0  0  0  0  0  0  0  0  0  0  0
  -11.1350   -2.5700  -24.8590 H   0  0  0  0  0  0  0  0  0  0  0  0
  -13.0360   -1.1150  -22.0860 H   0  0  0  0  0  0  0  0  0  0  0  0
  -12.3250   -2.5610  -21.2020 H   0  0  0  0  0  0  0  0  0  0  0  0
  3  1  2  0
  4  2  2  0
  6  5  1  0
  7  2  1  0
  8  5  2  0
  9  6  2  0
 10  4  1  0
 11  7  2  0
 11  8  1  0
 12  9  1  0
 12 10  2  0
 12 11  1  0
 13  3  1  0
 14  3  1  0
 14 10  1  0
 15 13  1  0
 16 13  1  0
 18 15  1  0
 19 16  1  0
 20 17  1  0
 21 17  1  0
 22 18  1  0
 22 19  1  0
 22 20  1  0
 22 21  1  0
  4 23  1  0
  5 24  1  0
  6 25  1  0
  7 26  1  0
  8 27  1  0
  9 28  1  0
 14 29  1  0
 14 30  1  0
 15 31  1  0
 15 32  1  0
 16 33  1  0
 16 34  1  0
 17 35  1  0
 17 36  1  0
 18 37  1  0
 18 38  1  0
 19 39  1  0
 19 40  1  0
 20 41  1  0
 20 42  1  0
 21 43  1  0
 21 44  1  0
M  END
>  <Favorite_cresset>
false

>  <Protein_cresset>
sars_P

>  <MW_cresset>
294.4

>  <#Atoms_cresset>
22

>  <SlogP_cresset>
3.6

>  <TPSA_cresset>
33.2

>  <Flexibility_cresset>
3.2

>  <HBA_cresset>
3

>  <HBD_cresset>
0

>  <Rof5_cresset>
0

>  <Confs_cresset>
0

>  <Poses_cresset>
0

$$$$
predicted (62)
  xed2sdf           3D
 
 44 47  0  0  0  0  0  0  0  0999 V2000
   -8.0850    0.4220  -21.4400 O   0  0  0  0  0  0  0  0  0  0  0  0
   -5.9200   -0.4690  -17.8530 N   0  0  0  0  0  0  0  0  0  0  0  0
   -7.7370   -0.6010  -22.0100 C   0  0  0  0  0  0  0  0  0  0  0  0
   -6.4670   -1.1160  -18.8930 C   0  0  0  0  0  0  0  0  0  0  0  0
   -2.6620    1.5390  -20.8280 C   0  0  0  0  0  0  0  0  0  0  0  0
   -3.2840    0.9490  -21.9380 C   0  0  0  0  0  0  0  0  0  0  0  0
   -4.8740    0.3400  -18.0900 C   0  0  0  0  0  0  0  0  0  0  0  0
   -3.1890    1.3370  -19.5450 C   0  0  0  0  0  0  0  0  0  0  0  0
   -4.4080    0.1250  -21.7640 C   0  0  0  0  0  0  0  0  0  0  0  0
   -6.0270   -0.9580  -20.2180 C   0  0  0  0  0  0  0  0  0  0  0  0
   -4.3170    0.5220  -19.3650 C   0  0  0  0  0  0  0  0  0  0  0  0
   -4.9180   -0.1160  -20.4680 C   0  0  0  0  0  0  0  0  0  0  0  0
   -8.0760   -0.8670  -23.3350 N   0  0  0  0  0  0  0  0  0  0  0  0
   -6.8210   -1.6310  -21.3240 C   0  0  0  0  0  0  0  0  0  0  0  0
   -8.6260    0.1630  -24.2240 C   0  0  0  0  0  0  0  0  0  0  0  0
   -8.3220   -2.2180  -23.8470 C   0  0  0  0  0  0  0  0  0  0  0  0
  -10.1530    0.0320  -24.3810 C   0  0  0  0  0  0  0  0  0  0  0  0
   -9.8170   -2.5170  -23.6580 C   0  0  0  0  0  0  0  0  0  0  0  0
  -12.7500   -2.3400  -22.8500 C   0  0  0  0  0  0  0  0  0  0  0  0
  -12.3710   -0.9240  -22.5380 C   0  0  0  0  0  0  0  0  0  0  0  0
  -10.7200   -1.4500  -24.3760 C   0  0  0  0  0  0  0  0  0  0  0  0
  -12.1810   -1.4190  -23.9120 C   0  0  0  0  0  0  0  0  0  0  0  0
   -7.3180   -1.7580  -18.6640 H   0  0  0  0  0  0  0  0  0  0  0  0
   -1.7840    2.1630  -20.9640 H   0  0  0  0  0  0  0  0  0  0  0  0
   -2.8900    1.1280  -22.9350 H   0  0  0  0  0  0  0  0  0  0  0  0
   -4.4980    0.8760  -17.2280 H   0  0  0  0  0  0  0  0  0  0  0  0
   -2.7140    1.8070  -18.6920 H   0  0  0  0  0  0  0  0  0  0  0  0
   -4.8690   -0.3150  -22.6420 H   0  0  0  0  0  0  0  0  0  0  0  0
   -7.4530   -2.4300  -20.9150 H   0  0  0  0  0  0  0  0  0  0  0  0
   -6.1430   -2.1030  -22.0470 H   0  0  0  0  0  0  0  0  0  0  0  0
   -8.1470    0.0690  -25.2060 H   0  0  0  0  0  0  0  0  0  0  0  0
   -8.3900    1.1590  -23.8320 H   0  0  0  0  0  0  0  0  0  0  0  0
   -7.7000   -2.9530  -23.3230 H   0  0  0  0  0  0  0  0  0  0  0  0
   -8.0550   -2.2460  -24.9120 H   0  0  0  0  0  0  0  0  0  0  0  0
  -10.4590    0.5510  -25.2920 H   0  0  0  0  0  0  0  0  0  0  0  0
  -10.6100    0.6420  -23.5950 H   0  0  0  0  0  0  0  0  0  0  0  0
  -10.0560   -3.5220  -24.0350 H   0  0  0  0  0  0  0  0  0  0  0  0
   -9.9880   -2.5300  -22.5760 H   0  0  0  0  0  0  0  0  0  0  0  0
  -13.8100   -2.5640  -22.8610 H   0  0  0  0  0  0  0  0  0  0  0  0
  -12.1110   -3.1600  -22.5300 H   0  0  0  0  0  0  0  0  0  0  0  0
  -13.1350   -0.1740  -22.3710 H   0  0  0  0  0  0  0  0  0  0  0  0
  -11.4300   -0.7580  -22.0450 H   0  0  0  0  0  0  0  0  0  0  0  0
  -10.7480   -1.8340  -25.3890 H   0  0  0  0  0  0  0  0  0  0  0  0
  -12.8840   -1.0000  -24.6260 H   0  0  0  0  0  0  0  0  0  0  0  0
  3  1  2  0
  4  2  2  0
  6  5  1  0
  7  2  1  0
  8  5  2  0
  9  6  2  0
 10  4  1  0
 11  7  2  0
 11  8  1  0
 12  9  1  0
 12 10  2  0
 12 11  1  0
 13  3  1  0
 14  3  1  0
 14 10  1  0
 15 13  1  0
 16 13  1  0
 17 15  1  0
 18 16  1  0
 20 19  1  0
 21 17  1  0
 21 18  1  0
 22 19  1  0
 22 20  1  0
 22 21  1  0
  4 23  1  0
  5 24  1  0
  6 25  1  0
  7 26  1  0
  8 27  1  0
  9 28  1  0
 14 29  1  0
 14 30  1  0
 15 31  1  0
 15 32  1  0
 16 33  1  0
 16 34  1  0
 17 35  1  0
 17 36  1  0
 18 37  1  0
 18 38  1  0
 19 39  1  0
 19 40  1  0
 20 41  1  0
 20 42  1  0
 21 43  1  0
 22 44  1  0
M  END
>  <Favorite_cresset>
false

>  <Protein_cresset>
sars_P

>  <MW_cresset>
294.4

>  <#Atoms_cresset>
22

>  <SlogP_cresset>
3.4

>  <TPSA_cresset>
33.2

>  <Flexibility_cresset>
3.2

>  <HBA_cresset>
3

>  <HBD_cresset>
0

>  <Rof5_cresset>
0

>  <Confs_cresset>
0

>  <Poses_cresset>
0

$$$$
predicted (63)
  xed2sdf           3D
 
 57 61  0  0  1  0  0  0  0  0999 V2000
  -13.5410   -2.9850  -22.0210 Cl  0  0  0  0  0  0  0  0  0  0  0  0
  -10.7030    2.6530  -24.4420 O   0  0  0  0  0  0  0  0  0  0  0  0
   -5.7150    2.4110  -24.3500 O   0  0  0  0  0  0  0  0  0  0  0  0
   -8.5740    0.8460  -21.5060 O   0  0  0  0  0  0  0  0  0  0  0  0
   -6.1540   -0.3920  -17.9760 N   0  0  0  0  0  0  0  0  0  0  0  0
   -7.2100   -4.2690  -24.3700 O   0  0  0  0  0  0  0  0  0  0  0  0
  -10.1780    1.5650  -24.2830 C   0  0  0  0  0  0  0  0  0  0  0  0
   -6.8580    2.8310  -24.2520 C   0  0  0  0  0  0  0  0  0  0  0  0
   -8.1900   -0.1990  -21.9990 C   0  0  0  0  0  0  0  0  0  0  0  0
   -6.8220   -0.8160  -19.0650 C   0  0  0  0  0  0  0  0  0  0  0  0
  -13.1580   -0.5910  -23.2230 C   0  0  0  0  0  0  0  0  0  0  0  0
  -12.3790    0.4650  -23.6990 C   0  0  0  0  0  0  0  0  0  0  0  0
  -11.1370   -1.8150  -22.6830 C   0  0  0  0  0  0  0  0  0  0  0  0
   -2.7690    1.5250  -20.8750 C   0  0  0  0  0  0  0  0  0  0  0  0
   -3.4670    1.0820  -22.0030 C   0  0  0  0  0  0  0  0  0  0  0  0
  -12.5370   -1.7260  -22.7050 C   0  0  0  0  0  0  0  0  0  0  0  0
  -10.9670    0.3820  -23.7360 C   0  0  0  0  0  0  0  0  0  0  0  0
  -10.3240   -0.7870  -23.2390 C   0  0  0  0  0  0  0  0  0  0  0  0
   -5.0090    0.2920  -18.1570 C   0  0  0  0  0  0  0  0  0  0  0  0
   -3.2800    1.2800  -19.5890 C   0  0  0  0  0  0  0  0  0  0  0  0
   -4.6730    0.3940  -21.8480 C   0  0  0  0  0  0  0  0  0  0  0  0
   -6.3770   -0.5800  -20.3730 C   0  0  0  0  0  0  0  0  0  0  0  0
   -4.4760    0.5640  -19.4310 C   0  0  0  0  0  0  0  0  0  0  0  0
   -5.1760    0.1160  -20.5620 C   0  0  0  0  0  0  0  0  0  0  0  0
   -7.2470    3.7340  -23.2780 N   0  0  0  0  0  0  0  0  0  0  0  0
   -7.1740   -0.9660  -21.4700 N   0  0  0  0  0  0  0  0  0  0  0  0
   -8.8400    1.3420  -24.6090 N   0  0  0  0  0  0  0  0  0  0  0  0
   -6.3390    4.3050  -22.2650 C   0  0  0  0  0  0  0  0  0  0  0  0
   -7.9780    2.4080  -25.2180 C   0  0  0  0  0  0  0  0  0  0  0  0
   -7.9020   -3.0310  -24.5570 C   0  0  0  0  0  0  0  0  0  0  0  0
   -6.9200   -2.1960  -22.2130 C   0  0  0  0  0  0  0  0  0  0  0  0
   -8.2300   -0.0040  -24.4820 C   0  0  0  0  0  0  0  0  0  0  0  0
   -8.1250   -2.3020  -23.1920 C   0  0  0  0  0  0  0  0  0  0  0  0
   -8.7690   -0.8460  -23.2650 C   0  0  0  0  0  0  0  0  0  0  0  0
   -6.2600   -4.0570  -24.4090 H   0  0  0  0  0  0  0  0  0  0  0  0
   -7.7550   -1.3430  -18.8880 H   0  0  0  0  0  0  0  0  0  0  0  0
  -14.2430   -0.5220  -23.2200 H   0  0  0  0  0  0  0  0  0  0  0  0
  -12.8940    1.3540  -24.0510 H   0  0  0  0  0  0  0  0  0  0  0  0
  -10.7100   -2.6870  -22.2060 H   0  0  0  0  0  0  0  0  0  0  0  0
   -1.8340    2.0610  -20.9970 H   0  0  0  0  0  0  0  0  0  0  0  0
   -3.0820    1.2750  -23.0010 H   0  0  0  0  0  0  0  0  0  0  0  0
   -4.5270    0.6530  -17.2550 H   0  0  0  0  0  0  0  0  0  0  0  0
   -2.7410    1.6470  -18.7260 H   0  0  0  0  0  0  0  0  0  0  0  0
   -5.2050    0.0770  -22.7350 H   0  0  0  0  0  0  0  0  0  0  0  0
   -8.2250    4.0000  -23.2560 H   0  0  0  0  0  0  0  0  0  0  0  0
   -5.2880    4.2010  -22.5690 H   0  0  0  0  0  0  0  0  0  0  0  0
   -6.4800    3.7970  -21.3080 H   0  0  0  0  0  0  0  0  0  0  0  0
   -6.5760    5.3650  -22.1240 H   0  0  0  0  0  0  0  0  0  0  0  0
   -7.5230    2.0480  -26.1490 H   0  0  0  0  0  0  0  0  0  0  0  0
   -8.5630    3.3010  -25.4790 H   0  0  0  0  0  0  0  0  0  0  0  0
   -8.8900   -3.2410  -24.9910 H   0  0  0  0  0  0  0  0  0  0  0  0
   -7.3600   -2.3860  -25.2660 H   0  0  0  0  0  0  0  0  0  0  0  0
   -5.9580   -2.1230  -22.7380 H   0  0  0  0  0  0  0  0  0  0  0  0
   -6.8850   -3.0340  -21.4980 H   0  0  0  0  0  0  0  0  0  0  0  0
   -7.1440    0.1210  -24.3860 H   0  0  0  0  0  0  0  0  0  0  0  0
   -8.4170   -0.5410  -25.4200 H   0  0  0  0  0  0  0  0  0  0  0  0
   -8.7770   -2.9610  -22.6330 H   0  0  0  0  0  0  0  0  0  0  0  0
  7  2  2  0
  8  3  2  0
  9  4  2  0
 10  5  2  0
 12 11  1  0
 15 14  1  0
 16  1  1  0
 16 11  2  0
 16 13  1  0
 17  7  1  0
 17 12  2  0
 18 13  2  0
 18 17  1  0
 19  5  1  0
 20 14  2  0
 21 15  2  0
 22 10  1  0
 23 19  2  0
 23 20  1  0
 24 21  1  0
 24 22  2  0
 24 23  1  0
 25  8  1  0
 26  9  1  0
 26 22  1  0
 27  7  1  0
 28 25  1  0
 29  8  1  0
 29 27  1  0
 30  6  1  0
 31 26  1  0
 32 27  1  0
 33 30  1  0
 33 31  1  0
 34  9  1  0
 34 18  1  0
 34 32  1  0
 34 33  1  0
  6 35  1  0
 10 36  1  0
 11 37  1  0
 12 38  1  0
 13 39  1  0
 14 40  1  0
 15 41  1  0
 19 42  1  0
 20 43  1  0
 21 44  1  0
 25 45  1  0
 28 46  1  0
 28 47  1  0
 28 48  1  0
 29 49  1  0
 29 50  1  0
 30 51  1  0
 30 52  1  0
 31 53  1  0
 31 54  1  0
 32 55  1  0
 32 56  1  0
 33 57  1  0
M  END
>  <Favorite_cresset>
false

>  <Protein_cresset>
sars_P

>  <MW_cresset>
478.9

>  <#Atoms_cresset>
34

>  <SlogP_cresset>
2.4

>  <TPSA_cresset>
102.8

>  <Flexibility_cresset>
4.9

>  <HBA_cresset>
8

>  <HBD_cresset>
2

>  <Rof5_cresset>
0

>  <Confs_cresset>
0

>  <Poses_cresset>
0

$$$$
predicted (64)
  xed2sdf           3D
 
 54 59  0  0  1  0  0  0  0  0999 V2000
  -10.7270    2.1081  -24.4870 O   0  0  0  0  0  0  0  0  0  0  0  0
   -8.6480    0.4850  -21.4910 O   0  0  0  0  0  0  0  0  0  0  0  0
   -6.1830   -0.5981  -17.9680 N   0  0  0  0  0  0  0  0  0  0  0  0
   -7.6270    2.7820  -22.8689 N   0  0  0  0  0  0  0  0  0  0  0  0
   -6.3151    3.3589  -24.3870 N   0  0  0  0  0  0  0  0  0  0  0  0
  -10.2091    0.9981  -24.2720 C   0  0  0  0  0  0  0  0  0  0  0  0
   -8.2420   -0.5680  -21.9289 C   0  0  0  0  0  0  0  0  0  0  0  0
   -7.3670    2.6639  -24.1610 C   0  0  0  0  0  0  0  0  0  0  0  0
   -6.8600   -1.0480  -19.0000 C   0  0  0  0  0  0  0  0  0  0  0  0
  -13.0640   -0.9790  -22.9640 C   0  0  0  0  0  0  0  0  0  0  0  0
  -12.3509    0.0220  -23.5510 C   0  0  0  0  0  0  0  0  0  0  0  0
  -11.0190   -2.1950  -22.4740 C   0  0  0  0  0  0  0  0  0  0  0  0
   -2.9121    1.3540  -20.9030 C   0  0  0  0  0  0  0  0  0  0  0  0
   -3.5860    0.8810  -22.0120 C   0  0  0  0  0  0  0  0  0  0  0  0
  -12.4140   -2.0901  -22.4250 C   0  0  0  0  0  0  0  0  0  0  0  0
  -10.9610   -0.0750  -23.6240 C   0  0  0  0  0  0  0  0  0  0  0  0
  -10.2900   -1.2160  -23.1440 C   0  0  0  0  0  0  0  0  0  0  0  0
   -5.0430    0.0810  -18.1580 C   0  0  0  0  0  0  0  0  0  0  0  0
   -3.3840    1.0870  -19.6250 C   0  0  0  0  0  0  0  0  0  0  0  0
   -4.7360    0.1690  -21.8480 C   0  0  0  0  0  0  0  0  0  0  0  0
   -6.4479   -0.8270  -20.3280 C   0  0  0  0  0  0  0  0  0  0  0  0
   -6.6880    3.5340  -22.2889 C   0  0  0  0  0  0  0  0  0  0  0  0
   -4.5470    0.3680  -19.4370 C   0  0  0  0  0  0  0  0  0  0  0  0
   -5.2460   -0.0980  -20.5669 C   0  0  0  0  0  0  0  0  0  0  0  0
   -7.2180   -1.2610  -21.3880 N   0  0  0  0  0  0  0  0  0  0  0  0
   -8.8720    0.8040  -24.5510 N   0  0  0  0  0  0  0  0  0  0  0  0
   -5.8900    3.8910  -23.1830 N   0  0  0  0  0  0  0  0  0  0  0  0
   -8.1340    1.8320  -25.2180 C   0  0  0  0  0  0  0  0  0  0  0  0
   -8.2090   -3.4870  -24.1950 C   0  0  0  0  0  0  0  0  0  0  0  0
   -7.0659   -2.5410  -22.0400 C   0  0  0  0  0  0  0  0  0  0  0  0
   -8.2500   -0.5210  -24.4169 C   0  0  0  0  0  0  0  0  0  0  0  0
   -8.2021   -2.6299  -23.0100 C   0  0  0  0  0  0  0  0  0  0  0  0
   -8.7910   -1.2559  -23.1611 C   0  0  0  0  0  0  0  0  0  0  0  0
  -13.1399   -3.0470  -21.8651 F   0  0  0  0  0  0  0  0  0  0  0  0
   -7.7663   -1.6082  -18.8231 H   0  0  0  0  0  0  0  0  0  0  0  0
  -14.1409   -0.9124  -22.9153 H   0  0  0  0  0  0  0  0  0  0  0  0
  -12.8579    0.8848  -23.9572 H   0  0  0  0  0  0  0  0  0  0  0  0
  -10.5153   -3.0237  -21.9988 H   0  0  0  0  0  0  0  0  0  0  0  0
   -2.0112    1.9360  -21.0310 H   0  0  0  0  0  0  0  0  0  0  0  0
   -3.2036    1.0744  -23.0033 H   0  0  0  0  0  0  0  0  0  0  0  0
   -4.4875    0.4186  -17.2955 H   0  0  0  0  0  0  0  0  0  0  0  0
   -2.8344    1.4463  -18.7675 H   0  0  0  0  0  0  0  0  0  0  0  0
   -5.2637   -0.1959  -22.7168 H   0  0  0  0  0  0  0  0  0  0  0  0
   -6.6288    3.7871  -21.2407 H   0  0  0  0  0  0  0  0  0  0  0  0
   -8.8136    2.4727  -25.7604 H   0  0  0  0  0  0  0  0  0  0  0  0
   -7.4324    1.3859  -25.9072 H   0  0  0  0  0  0  0  0  0  0  0  0
   -9.2289   -3.6951  -24.4828 H   0  0  0  0  0  0  0  0  0  0  0  0
   -7.7016   -2.9849  -25.0055 H   0  0  0  0  0  0  0  0  0  0  0  0
   -7.7016   -4.4140  -23.9718 H   0  0  0  0  0  0  0  0  0  0  0  0
   -6.1206   -2.5905  -22.5598 H   0  0  0  0  0  0  0  0  0  0  0  0
   -7.1221   -3.3420  -21.3178 H   0  0  0  0  0  0  0  0  0  0  0  0
   -7.1803   -0.4030  -24.3255 H   0  0  0  0  0  0  0  0  0  0  0  0
   -8.4737   -1.1082  -25.2953 H   0  0  0  0  0  0  0  0  0  0  0  0
   -8.9544   -3.1113  -22.4029 H   0  0  0  0  0  0  0  0  0  0  0  0
  6  1  2  0
  7  2  2  0
  8  4  1  0
  8  5  2  0
  9  3  2  0
 11 10  1  0
 14 13  1  0
 15 10  2  0
 15 12  1  0
 16  6  1  0
 16 11  2  0
 17 12  2  0
 17 16  1  0
 18  3  1  0
 19 13  2  0
 20 14  2  0
 21  9  1  0
 22  4  1  0
 23 18  2  0
 23 19  1  0
 24 20  1  0
 24 21  2  0
 24 23  1  0
 25  7  1  0
 25 21  1  0
 26  6  1  0
 27  5  1  0
 27 22  2  0
 28  8  1  0
 28 26  1  0
 30 25  1  0
 31 26  1  0
 32 29  1  0
 32 30  1  0
 33  7  1  0
 33 17  1  0
 33 31  1  0
 33 32  1  0
 34 15  1  0
  9 35  1  0
 10 36  1  0
 11 37  1  0
 12 38  1  0
 13 39  1  0
 14 40  1  0
 18 41  1  0
 19 42  1  0
 20 43  1  0
 22 44  1  0
 28 45  1  0
 28 46  1  0
 29 47  1  0
 29 48  1  0
 29 49  1  0
 30 50  1  0
 30 51  1  0
 31 52  1  0
 31 53  1  0
 32 54  1  0
M  END
>  <Favorite_cresset>
false

>  <Protein_cresset>
sars_P

>  <MW_cresset>
455.5

>  <#Atoms_cresset>
34

>  <SlogP_cresset>
3.0

>  <TPSA_cresset>
90.6

>  <Flexibility_cresset>
2.9

>  <HBA_cresset>
8

>  <HBD_cresset>
0

>  <Rof5_cresset>
0

>  <Tags_cresset>
Minimize unsuccessful

>  <Confs_cresset>
0

>  <Poses_cresset>
0

$$$$
predicted (65)
  xed2sdf           3D
 
 59 64  0  0  1  0  0  0  0  0999 V2000
  -11.0190    2.3060  -24.2010 O   0  0  0  0  0  0  0  0  0  0  0  0
   -8.8370    0.4720  -21.3040 O   0  0  0  0  0  0  0  0  0  0  0  0
   -7.6620    2.8500  -22.6520 N   0  0  0  0  0  0  0  0  0  0  0  0
   -6.2120   -0.5460  -17.9400 N   0  0  0  0  0  0  0  0  0  0  0  0
   -5.5840    3.7220  -23.2340 O   0  0  0  0  0  0  0  0  0  0  0  0
  -10.4700    1.2300  -24.0180 C   0  0  0  0  0  0  0  0  0  0  0  0
   -8.4160   -0.5350  -21.8270 C   0  0  0  0  0  0  0  0  0  0  0  0
   -6.4260    3.4120  -22.1080 C   0  0  0  0  0  0  0  0  0  0  0  0
   -6.9090   -1.0110  -18.9930 C   0  0  0  0  0  0  0  0  0  0  0  0
   -7.7660    3.2450  -24.0640 C   0  0  0  0  0  0  0  0  0  0  0  0
   -6.3350    3.6880  -24.4660 C   0  0  0  0  0  0  0  0  0  0  0  0
  -13.3990   -0.9210  -22.8500 C   0  0  0  0  0  0  0  0  0  0  0  0
  -12.6450    0.1320  -23.3720 C   0  0  0  0  0  0  0  0  0  0  0  0
  -11.3590   -2.1560  -22.4250 C   0  0  0  0  0  0  0  0  0  0  0  0
   -2.9120    1.2990  -20.9430 C   0  0  0  0  0  0  0  0  0  0  0  0
   -3.6300    0.8230  -22.0450 C   0  0  0  0  0  0  0  0  0  0  0  0
  -12.7570   -2.0610  -22.3770 C   0  0  0  0  0  0  0  0  0  0  0  0
  -11.2350    0.0470  -23.4580 C   0  0  0  0  0  0  0  0  0  0  0  0
  -10.5730   -1.1240  -22.9960 C   0  0  0  0  0  0  0  0  0  0  0  0
   -5.0700    0.1230  -18.1580 C   0  0  0  0  0  0  0  0  0  0  0  0
   -3.3890    1.0760  -19.6430 C   0  0  0  0  0  0  0  0  0  0  0  0
   -4.8250    0.1220  -21.8530 C   0  0  0  0  0  0  0  0  0  0  0  0
   -6.4950   -0.8210  -20.3160 C   0  0  0  0  0  0  0  0  0  0  0  0
   -4.5740    0.3550  -19.4490 C   0  0  0  0  0  0  0  0  0  0  0  0
   -5.2990   -0.1260  -20.5520 C   0  0  0  0  0  0  0  0  0  0  0  0
   -7.3260   -1.2410  -21.3750 N   0  0  0  0  0  0  0  0  0  0  0  0
   -9.1240    1.0370  -24.3210 N   0  0  0  0  0  0  0  0  0  0  0  0
   -8.3340    2.1110  -25.0020 C   0  0  0  0  0  0  0  0  0  0  0  0
   -8.2390   -3.4030  -24.3080 C   0  0  0  0  0  0  0  0  0  0  0  0
   -7.1040   -2.4880  -22.0950 C   0  0  0  0  0  0  0  0  0  0  0  0
   -8.5110   -0.3220  -24.2640 C   0  0  0  0  0  0  0  0  0  0  0  0
   -8.3750   -2.6340  -22.9700 C   0  0  0  0  0  0  0  0  0  0  0  0
   -9.0220   -1.1860  -23.0590 C   0  0  0  0  0  0  0  0  0  0  0  0
  -13.4900   -3.0420  -21.8180 F   0  0  0  0  0  0  0  0  0  0  0  0
   -8.4700    3.1610  -22.1060 H   0  0  0  0  0  0  0  0  0  0  0  0
   -5.9500    2.6690  -21.4620 H   0  0  0  0  0  0  0  0  0  0  0  0
   -6.6340    4.3240  -21.5340 H   0  0  0  0  0  0  0  0  0  0  0  0
   -7.8330   -1.5390  -18.7760 H   0  0  0  0  0  0  0  0  0  0  0  0
   -8.4150    4.1270  -24.1510 H   0  0  0  0  0  0  0  0  0  0  0  0
   -6.3130    4.6720  -24.9660 H   0  0  0  0  0  0  0  0  0  0  0  0
   -5.8950    2.9420  -25.1400 H   0  0  0  0  0  0  0  0  0  0  0  0
  -14.4810   -0.8440  -22.7810 H   0  0  0  0  0  0  0  0  0  0  0  0
  -13.1670    1.0250  -23.7030 H   0  0  0  0  0  0  0  0  0  0  0  0
  -10.9240   -3.0350  -21.9740 H   0  0  0  0  0  0  0  0  0  0  0  0
   -1.9920    1.8530  -21.0940 H   0  0  0  0  0  0  0  0  0  0  0  0
   -3.2740    1.0090  -23.0550 H   0  0  0  0  0  0  0  0  0  0  0  0
   -4.5540    0.5000  -17.2780 H   0  0  0  0  0  0  0  0  0  0  0  0
   -2.8440    1.4690  -18.7950 H   0  0  0  0  0  0  0  0  0  0  0  0
   -5.3770   -0.2160  -22.7180 H   0  0  0  0  0  0  0  0  0  0  0  0
   -8.9510    2.5610  -25.7950 H   0  0  0  0  0  0  0  0  0  0  0  0
   -7.4950    1.6430  -25.5270 H   0  0  0  0  0  0  0  0  0  0  0  0
   -9.2380   -3.5900  -24.7300 H   0  0  0  0  0  0  0  0  0  0  0  0
   -7.6580   -2.8280  -25.0360 H   0  0  0  0  0  0  0  0  0  0  0  0
   -7.7520   -4.3770  -24.1670 H   0  0  0  0  0  0  0  0  0  0  0  0
   -6.1940   -2.4170  -22.7020 H   0  0  0  0  0  0  0  0  0  0  0  0
   -7.0040   -3.3040  -21.3610 H   0  0  0  0  0  0  0  0  0  0  0  0
   -7.4190   -0.2190  -24.1990 H   0  0  0  0  0  0  0  0  0  0  0  0
   -8.7470   -0.8280  -25.2050 H   0  0  0  0  0  0  0  0  0  0  0  0
   -8.9760   -3.2710  -22.3320 H   0  0  0  0  0  0  0  0  0  0  0  0
  6  1  2  0
  7  2  2  0
  8  3  1  0
  8  5  1  0
  9  4  2  0
 10  3  1  0
 11  5  1  0
 11 10  1  0
 13 12  1  0
 16 15  1  0
 17 12  2  0
 17 14  1  0
 18  6  1  0
 18 13  2  0
 19 14  2  0
 19 18  1  0
 20  4  1  0
 21 15  2  0
 22 16  2  0
 23  9  1  0
 24 20  2  0
 24 21  1  0
 25 22  1  0
 25 23  2  0
 25 24  1  0
 26  7  1  0
 26 23  1  0
 27  6  1  0
 28 10  1  0
 28 27  1  0
 30 26  1  0
 31 27  1  0
 32 29  1  0
 32 30  1  0
 33  7  1  0
 33 19  1  0
 33 31  1  0
 33 32  1  0
 34 17  1  0
  3 35  1  0
  8 36  1  0
  8 37  1  0
  9 38  1  0
 10 39  1  0
 11 40  1  0
 11 41  1  0
 12 42  1  0
 13 43  1  0
 14 44  1  0
 15 45  1  0
 16 46  1  0
 20 47  1  0
 21 48  1  0
 22 49  1  0
 28 50  1  0
 28 51  1  0
 29 52  1  0
 29 53  1  0
 29 54  1  0
 30 55  1  0
 30 56  1  0
 31 57  1  0
 31 58  1  0
 32 59  1  0
M  END
>  <Favorite_cresset>
false

>  <Protein_cresset>
sars_P

>  <MW_cresset>
460.5

>  <#Atoms_cresset>
34

>  <SlogP_cresset>
3.0

>  <TPSA_cresset>
74.8

>  <Flexibility_cresset>
3.4

>  <HBA_cresset>
7

>  <HBD_cresset>
1

>  <Rof5_cresset>
0

>  <Confs_cresset>
0

>  <Poses_cresset>
0

$$$$
predicted (66)
  xed2sdf           3D
 
 44 47  0  0  1  0  0  0  0  0999 V2000
   -8.3620    0.3320  -21.3190 O   0  0  0  0  0  0  0  0  0  0  0  0
   -6.1000   -0.6040  -17.8590 N   0  0  0  0  0  0  0  0  0  0  0  0
  -13.3090   -1.9260  -22.8600 S   0  0  0  0  0  0  0  0  0  0  0  0
   -8.2420   -0.7840  -21.8050 C   0  0  0  0  0  0  0  0  0  0  0  0
   -6.7870   -1.2100  -18.8420 C   0  0  0  0  0  0  0  0  0  0  0  0
  -13.5160   -0.3830  -23.6920 C   0  0  0  0  0  0  0  0  0  0  0  0
  -11.6130   -1.9180  -23.3240 C   0  0  0  0  0  0  0  0  0  0  0  0
  -12.3120    0.2620  -23.8310 C   0  0  0  0  0  0  0  0  0  0  0  0
   -3.0260    1.2160  -21.0970 C   0  0  0  0  0  0  0  0  0  0  0  0
   -3.7320    0.5920  -22.1380 C   0  0  0  0  0  0  0  0  0  0  0  0
  -11.2260   -0.6420  -23.6380 C   0  0  0  0  0  0  0  0  0  0  0  0
   -5.0140    0.1140  -18.1720 C   0  0  0  0  0  0  0  0  0  0  0  0
   -3.4480    1.0660  -19.7670 C   0  0  0  0  0  0  0  0  0  0  0  0
   -4.8730   -0.1700  -21.8620 C   0  0  0  0  0  0  0  0  0  0  0  0
   -6.4090   -1.1280  -20.1850 C   0  0  0  0  0  0  0  0  0  0  0  0
   -4.5750    0.2820  -19.4880 C   0  0  0  0  0  0  0  0  0  0  0  0
   -5.2910   -0.3440  -20.5270 C   0  0  0  0  0  0  0  0  0  0  0  0
   -8.9450   -1.1750  -22.9360 N   0  0  0  0  0  0  0  0  0  0  0  0
   -7.2630   -1.8060  -21.2280 C   0  0  0  0  0  0  0  0  0  0  0  0
   -7.8260    0.4890  -25.0680 C   0  0  0  0  0  0  0  0  0  0  0  0
  -10.6090   -3.0110  -23.0310 C   0  0  0  0  0  0  0  0  0  0  0  0
   -9.1610   -2.5890  -23.3460 C   0  0  0  0  0  0  0  0  0  0  0  0
   -9.2610   -0.0320  -25.0930 C   0  0  0  0  0  0  0  0  0  0  0  0
   -9.7900   -0.2080  -23.6730 C   0  0  0  0  0  0  0  0  0  0  0  0
   -7.6650   -1.7860  -18.5480 H   0  0  0  0  0  0  0  0  0  0  0  0
  -14.5070    0.0010  -23.8590 H   0  0  0  0  0  0  0  0  0  0  0  0
  -12.2130    1.3170  -24.0860 H   0  0  0  0  0  0  0  0  0  0  0  0
   -2.1550    1.8230  -21.3220 H   0  0  0  0  0  0  0  0  0  0  0  0
   -3.4000    0.7010  -23.1650 H   0  0  0  0  0  0  0  0  0  0  0  0
   -4.4890    0.5700  -17.3420 H   0  0  0  0  0  0  0  0  0  0  0  0
   -2.9070    1.5540  -18.9600 H   0  0  0  0  0  0  0  0  0  0  0  0
   -5.4180   -0.6120  -22.6920 H   0  0  0  0  0  0  0  0  0  0  0  0
   -7.8220   -2.6400  -20.7950 H   0  0  0  0  0  0  0  0  0  0  0  0
   -6.6530   -2.2470  -22.0270 H   0  0  0  0  0  0  0  0  0  0  0  0
   -7.1260   -0.3550  -25.1130 H   0  0  0  0  0  0  0  0  0  0  0  0
   -7.6410    1.0520  -24.1430 H   0  0  0  0  0  0  0  0  0  0  0  0
   -7.6630    1.1520  -25.9230 H   0  0  0  0  0  0  0  0  0  0  0  0
  -10.8410   -3.9240  -23.5950 H   0  0  0  0  0  0  0  0  0  0  0  0
  -10.6600   -3.2420  -21.9620 H   0  0  0  0  0  0  0  0  0  0  0  0
   -8.4760   -3.2740  -22.8350 H   0  0  0  0  0  0  0  0  0  0  0  0
   -8.9730   -2.7000  -24.4220 H   0  0  0  0  0  0  0  0  0  0  0  0
   -9.2910   -0.9900  -25.6300 H   0  0  0  0  0  0  0  0  0  0  0  0
   -9.8980    0.6860  -25.6190 H   0  0  0  0  0  0  0  0  0  0  0  0
   -9.7460    0.7780  -23.1900 H   0  0  0  0  0  0  0  0  0  0  0  0
  4  1  2  0
  5  2  2  0
  6  3  1  0
  7  3  1  0
  8  6  2  0
 10  9  1  0
 11  7  2  0
 11  8  1  0
 12  2  1  0
 13  9  2  0
 14 10  2  0
 15  5  1  0
 16 12  2  0
 16 13  1  0
 17 14  1  0
 17 15  2  0
 17 16  1  0
 18  4  1  0
 19  4  1  0
 19 15  1  0
 21  7  1  0
 22 18  1  0
 22 21  1  0
 23 20  1  0
 24 11  1  0
 24 18  1  0
 24 23  1  0
  5 25  1  0
  6 26  1  0
  8 27  1  0
  9 28  1  0
 10 29  1  0
 12 30  1  0
 13 31  1  0
 14 32  1  0
 19 33  1  0
 19 34  1  0
 20 35  1  0
 20 36  1  0
 20 37  1  0
 21 38  1  0
 21 39  1  0
 22 40  1  0
 22 41  1  0
 23 42  1  0
 23 43  1  0
 24 44  1  0
M  END
>  <Favorite_cresset>
false

>  <Protein_cresset>
sars_P

>  <MW_cresset>
336.5

>  <#Atoms_cresset>
24

>  <SlogP_cresset>
4.4

>  <TPSA_cresset>
33.2

>  <Flexibility_cresset>
3.7

>  <HBA_cresset>
3

>  <HBD_cresset>
0

>  <Rof5_cresset>
0

>  <Confs_cresset>
0

>  <Poses_cresset>
0

$$$$
predicted (67)
  xed2sdf           3D
 
 58 63  0  0  1  0  0  0  0  0999 V2000
  -11.0690    2.2420  -24.3810 O   0  0  0  0  0  0  0  0  0  0  0  0
   -8.8200    0.5790  -21.5260 O   0  0  0  0  0  0  0  0  0  0  0  0
   -5.3140    3.1600  -24.0220 N   0  0  0  0  0  0  0  0  0  0  0  0
   -6.2430   -0.5350  -18.0420 N   0  0  0  0  0  0  0  0  0  0  0  0
   -6.0540    2.4030  -24.9930 O   0  0  0  0  0  0  0  0  0  0  0  0
  -10.5500    1.1440  -24.2480 C   0  0  0  0  0  0  0  0  0  0  0  0
   -8.4360   -0.4770  -21.9990 C   0  0  0  0  0  0  0  0  0  0  0  0
   -6.9470   -0.9750  -19.1060 C   0  0  0  0  0  0  0  0  0  0  0  0
   -6.2270    3.6470  -23.1770 C   0  0  0  0  0  0  0  0  0  0  0  0
   -7.3600    2.5170  -24.6210 C   0  0  0  0  0  0  0  0  0  0  0  0
   -7.5500    3.2550  -23.5070 C   0  0  0  0  0  0  0  0  0  0  0  0
  -13.4670   -0.9470  -22.9290 C   0  0  0  0  0  0  0  0  0  0  0  0
  -12.7200    0.0720  -23.5310 C   0  0  0  0  0  0  0  0  0  0  0  0
  -11.4110   -2.1410  -22.4440 C   0  0  0  0  0  0  0  0  0  0  0  0
   -2.8910    1.2430  -21.0470 C   0  0  0  0  0  0  0  0  0  0  0  0
   -3.6230    0.7880  -22.1540 C   0  0  0  0  0  0  0  0  0  0  0  0
  -12.8100   -2.0480  -22.3830 C   0  0  0  0  0  0  0  0  0  0  0  0
  -11.3090   -0.0080  -23.6180 C   0  0  0  0  0  0  0  0  0  0  0  0
  -10.6320   -1.1440  -23.0970 C   0  0  0  0  0  0  0  0  0  0  0  0
   -5.0880    0.1210  -18.2630 C   0  0  0  0  0  0  0  0  0  0  0  0
   -3.3800    1.0390  -19.7490 C   0  0  0  0  0  0  0  0  0  0  0  0
   -4.8420    0.1290  -21.9610 C   0  0  0  0  0  0  0  0  0  0  0  0
   -6.5400   -0.7760  -20.4310 C   0  0  0  0  0  0  0  0  0  0  0  0
   -4.5880    0.3530  -19.5520 C   0  0  0  0  0  0  0  0  0  0  0  0
   -5.3260   -0.1060  -20.6630 C   0  0  0  0  0  0  0  0  0  0  0  0
   -7.3670   -1.1950  -21.5020 N   0  0  0  0  0  0  0  0  0  0  0  0
   -9.2520    0.8850  -24.6850 N   0  0  0  0  0  0  0  0  0  0  0  0
   -5.9660    4.5040  -21.9850 C   0  0  0  0  0  0  0  0  0  0  0  0
   -8.4510    1.8890  -25.4400 C   0  0  0  0  0  0  0  0  0  0  0  0
   -8.2760   -3.5300  -24.3390 C   0  0  0  0  0  0  0  0  0  0  0  0
   -7.1430   -2.4590  -22.1990 C   0  0  0  0  0  0  0  0  0  0  0  0
   -8.5870   -0.4230  -24.4710 C   0  0  0  0  0  0  0  0  0  0  0  0
   -8.4250   -2.6510  -23.0500 C   0  0  0  0  0  0  0  0  0  0  0  0
   -9.0760   -1.1990  -23.1950 C   0  0  0  0  0  0  0  0  0  0  0  0
  -13.5350   -2.9900  -21.7410 F   0  0  0  0  0  0  0  0  0  0  0  0
   -7.8730   -1.5020  -18.8890 H   0  0  0  0  0  0  0  0  0  0  0  0
   -8.4850    3.4900  -22.9970 H   0  0  0  0  0  0  0  0  0  0  0  0
  -14.5480   -0.8700  -22.8570 H   0  0  0  0  0  0  0  0  0  0  0  0
  -13.2560    0.9320  -23.9230 H   0  0  0  0  0  0  0  0  0  0  0  0
  -10.9660   -2.9850  -21.9380 H   0  0  0  0  0  0  0  0  0  0  0  0
   -1.9500    1.7600  -21.2020 H   0  0  0  0  0  0  0  0  0  0  0  0
   -3.2560    0.9560  -23.1620 H   0  0  0  0  0  0  0  0  0  0  0  0
   -4.5600    0.4750  -17.3790 H   0  0  0  0  0  0  0  0  0  0  0  0
   -2.8200    1.4150  -18.8980 H   0  0  0  0  0  0  0  0  0  0  0  0
   -5.4000   -0.1980  -22.8310 H   0  0  0  0  0  0  0  0  0  0  0  0
   -4.8920    4.6130  -21.8050 H   0  0  0  0  0  0  0  0  0  0  0  0
   -6.4080    4.0440  -21.1050 H   0  0  0  0  0  0  0  0  0  0  0  0
   -6.4070    5.5040  -22.0840 H   0  0  0  0  0  0  0  0  0  0  0  0
   -7.9850    1.3990  -26.3030 H   0  0  0  0  0  0  0  0  0  0  0  0
   -9.0990    2.6800  -25.8410 H   0  0  0  0  0  0  0  0  0  0  0  0
   -7.2300   -3.6210  -24.6560 H   0  0  0  0  0  0  0  0  0  0  0  0
   -8.8520   -3.1200  -25.1770 H   0  0  0  0  0  0  0  0  0  0  0  0
   -8.6490   -4.5530  -24.1670 H   0  0  0  0  0  0  0  0  0  0  0  0
   -6.2460   -2.3790  -22.8310 H   0  0  0  0  0  0  0  0  0  0  0  0
   -7.0110   -3.2580  -21.4520 H   0  0  0  0  0  0  0  0  0  0  0  0
   -7.5050   -0.2480  -24.3980 H   0  0  0  0  0  0  0  0  0  0  0  0
   -8.7580   -1.0220  -25.3680 H   0  0  0  0  0  0  0  0  0  0  0  0
   -9.0280   -3.2440  -22.3730 H   0  0  0  0  0  0  0  0  0  0  0  0
  5  3  1  0
  6  1  2  0
  7  2  2  0
  8  4  2  0
  9  3  2  0
 10  5  1  0
 11  9  1  0
 11 10  2  0
 13 12  1  0
 16 15  1  0
 17 12  2  0
 17 14  1  0
 18  6  1  0
 18 13  2  0
 19 14  2  0
 19 18  1  0
 20  4  1  0
 21 15  2  0
 22 16  2  0
 23  8  1  0
 24 20  2  0
 24 21  1  0
 25 22  1  0
 25 23  2  0
 25 24  1  0
 26  7  1  0
 26 23  1  0
 27  6  1  0
 28  9  1  0
 29 10  1  0
 29 27  1  0
 31 26  1  0
 32 27  1  0
 33 30  1  0
 33 31  1  0
 34  7  1  0
 34 19  1  0
 34 32  1  0
 34 33  1  0
 35 17  1  0
  8 36  1  0
 11 37  1  0
 12 38  1  0
 13 39  1  0
 14 40  1  0
 15 41  1  0
 16 42  1  0
 20 43  1  0
 21 44  1  0
 22 45  1  0
 28 46  1  0
 28 47  1  0
 28 48  1  0
 29 49  1  0
 29 50  1  0
 30 51  1  0
 30 52  1  0
 30 53  1  0
 31 54  1  0
 31 55  1  0
 32 56  1  0
 32 57  1  0
 33 58  1  0
M  END
>  <Favorite_cresset>
false

>  <Protein_cresset>
sars_P

>  <MW_cresset>
470.5

>  <#Atoms_cresset>
35

>  <SlogP_cresset>
3.9

>  <TPSA_cresset>
79.5

>  <Flexibility_cresset>
2.9

>  <HBA_cresset>
7

>  <HBD_cresset>
0

>  <Rof5_cresset>
0

>  <Confs_cresset>
0

>  <Poses_cresset>
0

$$$$
predicted (68)
  xed2sdf           3D
 
 61 67  0  0  1  0  0  0  0  0999 V2000
  -13.6150   -2.9410  -21.2100 Cl  0  0  0  0  0  0  0  0  0  0  0  0
   -8.1510    0.4060  -20.9920 O   0  0  0  0  0  0  0  0  0  0  0  0
   -5.7910   -0.4190  -17.8800 N   0  0  0  0  0  0  0  0  0  0  0  0
  -13.8410    3.7050  -23.1450 O   0  0  0  0  0  0  0  0  0  0  0  0
   -7.8680   -0.5250  -21.7140 C   0  0  0  0  0  0  0  0  0  0  0  0
   -6.3560   -1.1580  -18.8490 C   0  0  0  0  0  0  0  0  0  0  0  0
  -12.3210   -1.1630  -24.5240 C   0  0  0  0  0  0  0  0  0  0  0  0
  -13.0830   -1.4550  -23.3950 C   0  0  0  0  0  0  0  0  0  0  0  0
  -10.9830   -1.5490  -24.5670 C   0  0  0  0  0  0  0  0  0  0  0  0
  -11.1130   -2.5050  -22.3880 C   0  0  0  0  0  0  0  0  0  0  0  0
   -2.7480    1.4870  -21.1370 C   0  0  0  0  0  0  0  0  0  0  0  0
   -3.3630    0.7640  -22.1710 C   0  0  0  0  0  0  0  0  0  0  0  0
  -12.5120   -2.2510  -22.3910 C   0  0  0  0  0  0  0  0  0  0  0  0
  -10.3300   -2.0070  -23.4500 C   0  0  0  0  0  0  0  0  0  0  0  0
   -4.8030    0.4240  -18.2280 C   0  0  0  0  0  0  0  0  0  0  0  0
   -3.2190    1.3690  -19.8210 C   0  0  0  0  0  0  0  0  0  0  0  0
   -4.4410   -0.0890  -21.8910 C   0  0  0  0  0  0  0  0  0  0  0  0
   -5.9950   -1.0540  -20.2030 C   0  0  0  0  0  0  0  0  0  0  0  0
   -4.2950    0.5160  -19.5350 C   0  0  0  0  0  0  0  0  0  0  0  0
   -4.9060   -0.2290  -20.5600 C   0  0  0  0  0  0  0  0  0  0  0  0
   -8.2970   -0.5880  -23.0300 N   0  0  0  0  0  0  0  0  0  0  0  0
   -6.9370   -1.6460  -21.2270 C   0  0  0  0  0  0  0  0  0  0  0  0
   -8.8050   -1.9200  -23.5150 C   0  0  0  0  0  0  0  0  0  0  0  0
  -13.1570    4.6970  -23.9190 C   0  0  0  0  0  0  0  0  0  0  0  0
  -12.7400    4.3290  -22.4590 C   0  0  0  0  0  0  0  0  0  0  0  0
  -12.2240    3.5430  -23.6680 C   0  0  0  0  0  0  0  0  0  0  0  0
   -8.4970    0.6520  -25.3450 C   0  0  0  0  0  0  0  0  0  0  0  0
   -8.4280    2.1420  -25.7910 C   0  0  0  0  0  0  0  0  0  0  0  0
   -7.6260    1.8830  -23.5520 C   0  0  0  0  0  0  0  0  0  0  0  0
  -10.7870    3.7700  -24.0330 C   0  0  0  0  0  0  0  0  0  0  0  0
   -9.9370    1.4130  -23.3830 C   0  0  0  0  0  0  0  0  0  0  0  0
   -8.5960    0.7080  -23.7830 C   0  0  0  0  0  0  0  0  0  0  0  0
   -8.4110    2.8690  -24.4380 C   0  0  0  0  0  0  0  0  0  0  0  0
   -9.7890    2.7900  -23.9080 N   0  3  0  0  0  0  0  0  0  0  0  0
   -7.1790   -1.8070  -18.5490 H   0  0  0  0  0  0  0  0  0  0  0  0
  -12.8230   -0.8100  -25.4140 H   0  0  0  0  0  0  0  0  0  0  0  0
  -14.1480   -1.2280  -23.3830 H   0  0  0  0  0  0  0  0  0  0  0  0
  -10.3730   -1.5050  -25.4420 H   0  0  0  0  0  0  0  0  0  0  0  0
  -10.6500   -3.0950  -21.6030 H   0  0  0  0  0  0  0  0  0  0  0  0
   -1.9170    2.1520  -21.3570 H   0  0  0  0  0  0  0  0  0  0  0  0
   -3.0060    0.8720  -23.1930 H   0  0  0  0  0  0  0  0  0  0  0  0
   -4.4380    1.0740  -17.4410 H   0  0  0  0  0  0  0  0  0  0  0  0
   -2.7530    1.9380  -19.0240 H   0  0  0  0  0  0  0  0  0  0  0  0
   -4.8930   -0.6330  -22.7150 H   0  0  0  0  0  0  0  0  0  0  0  0
   -7.5620   -2.4270  -20.7770 H   0  0  0  0  0  0  0  0  0  0  0  0
   -6.3910   -2.1090  -22.0560 H   0  0  0  0  0  0  0  0  0  0  0  0
   -8.3850   -2.7480  -22.9310 H   0  0  0  0  0  0  0  0  0  0  0  0
   -8.4520   -2.0710  -24.5430 H   0  0  0  0  0  0  0  0  0  0  0  0
  -13.1600    5.7780  -23.7740 H   0  0  0  0  0  0  0  0  0  0  0  0
  -12.3540    3.6010  -21.7480 H   0  0  0  0  0  0  0  0  0  0  0  0
  -12.4740    2.4810  -23.8900 H   0  0  0  0  0  0  0  0  0  0  0  0
   -7.6010    0.1090  -25.6670 H   0  0  0  0  0  0  0  0  0  0  0  0
   -9.3580    0.1940  -25.8100 H   0  0  0  0  0  0  0  0  0  0  0  0
   -7.5290    2.3560  -26.3820 H   0  0  0  0  0  0  0  0  0  0  0  0
   -9.3110    2.4330  -26.3780 H   0  0  0  0  0  0  0  0  0  0  0  0
   -6.6140    1.6780  -23.9280 H   0  0  0  0  0  0  0  0  0  0  0  0
   -7.5680    2.2330  -22.5150 H   0  0  0  0  0  0  0  0  0  0  0  0
  -10.4490    4.7730  -24.3030 H   0  0  0  0  0  0  0  0  0  0  0  0
  -10.8110    0.9170  -23.8160 H   0  0  0  0  0  0  0  0  0  0  0  0
  -10.0410    1.4610  -22.2940 H   0  0  0  0  0  0  0  0  0  0  0  0
   -7.9960    3.8870  -24.4590 H   0  0  0  0  0  0  0  0  0  0  0  0
  5  2  2  0
  6  3  2  0
  8  7  2  0
  9  7  1  0
 12 11  1  0
 13  1  1  0
 13  8  1  0
 13 10  2  0
 14  9  2  0
 14 10  1  0
 15  3  1  0
 16 11  2  0
 17 12  2  0
 18  6  1  0
 19 15  2  0
 19 16  1  0
 20 17  1  0
 20 18  2  0
 20 19  1  0
 21  5  1  0
 22  5  1  0
 22 18  1  0
 23 14  1  0
 23 21  1  0
 24  4  1  0
 25  4  1  0
 25 24  1  0
 26 24  1  0
 26 25  1  0
 28 27  1  0
 30 26  1  0
 32 21  1  0
 32 27  1  0
 32 29  1  0
 32 31  1  0
 33 28  1  0
 33 29  1  0
 34 30  2  0
 34 31  1  0
 34 33  1  0
  6 35  1  0
  7 36  1  0
  8 37  1  0
  9 38  1  0
 10 39  1  0
 11 40  1  0
 12 41  1  0
 15 42  1  0
 16 43  1  0
 17 44  1  0
 22 45  1  0
 22 46  1  0
 23 47  1  0
 23 48  1  0
 24 49  1  0
 25 50  1  0
 26 51  1  0
 27 52  1  0
 27 53  1  0
 28 54  1  0
 28 55  1  0
 29 56  1  0
 29 57  1  0
 30 58  1  0
 31 59  1  0
 31 60  1  0
 33 61  1  0
M  CHG  1  34   1
M  END
>  <Favorite_cresset>
false

>  <Protein_cresset>
sars_P

>  <MW_cresset>
473.0

>  <#Atoms_cresset>
34

>  <SlogP_cresset>
4.3

>  <TPSA_cresset>
48.7

>  <Flexibility_cresset>
7.3

>  <HBA_cresset>
5

>  <HBD_cresset>
0

>  <Rof5_cresset>
0

>  <Confs_cresset>
0

>  <Poses_cresset>
0

$$$$
predicted (69)
  xed2sdf           3D
 
 64 68  0  0  0  0  0  0  0  0999 V2000
  -13.5260   -2.8390  -21.9260 Cl  0  0  0  0  0  0  0  0  0  0  0  0
   -5.4070   -5.2280  -28.1190 O   0  0  0  0  0  0  0  0  0  0  0  0
   -8.2230    0.0640  -21.0970 O   0  0  0  0  0  0  0  0  0  0  0  0
   -5.9830   -0.5430  -17.8820 N   0  0  0  0  0  0  0  0  0  0  0  0
   -5.9020   -4.9610  -27.0370 C   0  0  0  0  0  0  0  0  0  0  0  0
   -7.8480   -0.8540  -21.8100 C   0  0  0  0  0  0  0  0  0  0  0  0
   -3.9910   -6.0060  -25.6110 C   0  0  0  0  0  0  0  0  0  0  0  0
   -5.5030   -5.7570  -25.7590 C   0  0  0  0  0  0  0  0  0  0  0  0
   -6.4570   -1.2630  -18.9110 C   0  0  0  0  0  0  0  0  0  0  0  0
  -13.0790    0.7460  -23.6890 C   0  0  0  0  0  0  0  0  0  0  0  0
   -8.7430   -4.6600  -23.8860 C   0  0  0  0  0  0  0  0  0  0  0  0
  -13.6470   -0.4280  -23.1730 C   0  0  0  0  0  0  0  0  0  0  0  0
   -8.2800   -4.7460  -25.1860 C   0  0  0  0  0  0  0  0  0  0  0  0
  -11.6760    0.8860  -23.7430 C   0  0  0  0  0  0  0  0  0  0  0  0
  -11.4120   -1.2860  -22.7000 C   0  0  0  0  0  0  0  0  0  0  0  0
   -8.7430   -3.4430  -23.2080 C   0  0  0  0  0  0  0  0  0  0  0  0
   -2.6270    1.4230  -20.7520 C   0  0  0  0  0  0  0  0  0  0  0  0
   -3.1230    0.7110  -21.8540 C   0  0  0  0  0  0  0  0  0  0  0  0
  -12.8110   -1.4230  -22.6460 C   0  0  0  0  0  0  0  0  0  0  0  0
   -7.5800   -3.6690  -25.7250 C   0  0  0  0  0  0  0  0  0  0  0  0
   -7.5830   -2.4040  -25.0760 C   0  0  0  0  0  0  0  0  0  0  0  0
  -10.8240   -0.1590  -23.3140 C   0  0  0  0  0  0  0  0  0  0  0  0
   -8.2420   -2.2830  -23.8160 C   0  0  0  0  0  0  0  0  0  0  0  0
   -4.9510    0.2910  -18.0990 C   0  0  0  0  0  0  0  0  0  0  0  0
   -3.2280    1.2740  -19.4990 C   0  0  0  0  0  0  0  0  0  0  0  0
   -4.2200   -0.1570  -21.7050 C   0  0  0  0  0  0  0  0  0  0  0  0
   -5.9400   -1.1670  -20.2170 C   0  0  0  0  0  0  0  0  0  0  0  0
   -4.3280    0.4170  -19.3470 C   0  0  0  0  0  0  0  0  0  0  0  0
   -4.8260   -0.3150  -20.4410 C   0  0  0  0  0  0  0  0  0  0  0  0
   -6.7930   -3.8900  -26.8810 N   0  0  0  0  0  0  0  0  0  0  0  0
   -6.7350   -1.8250  -21.3370 C   0  0  0  0  0  0  0  0  0  0  0  0
   -6.8210   -1.2290  -25.7230 C   0  0  0  0  0  0  0  0  0  0  0  0
   -6.7650   -2.7490  -27.7950 C   0  0  0  0  0  0  0  0  0  0  0  0
   -6.0930   -1.5790  -27.0510 C   0  0  0  0  0  0  0  0  0  0  0  0
   -9.3160   -0.0240  -23.6290 C   0  0  0  0  0  0  0  0  0  0  0  0
   -8.3760   -1.0520  -23.0910 N   0  0  0  0  0  0  0  0  0  0  0  0
   -3.4480   -5.9100  -26.5600 H   0  0  0  0  0  0  0  0  0  0  0  0
   -3.5580   -5.2930  -24.9020 H   0  0  0  0  0  0  0  0  0  0  0  0
   -3.8450   -7.0160  -25.2070 H   0  0  0  0  0  0  0  0  0  0  0  0
   -5.8560   -5.2980  -24.8220 H   0  0  0  0  0  0  0  0  0  0  0  0
   -6.0020   -6.7280  -25.8540 H   0  0  0  0  0  0  0  0  0  0  0  0
   -7.3170   -1.9040  -18.6930 H   0  0  0  0  0  0  0  0  0  0  0  0
  -13.7260    1.5240  -24.0930 H   0  0  0  0  0  0  0  0  0  0  0  0
   -9.0780   -5.5600  -23.4050 H   0  0  0  0  0  0  0  0  0  0  0  0
  -14.7270   -0.5460  -23.1470 H   0  0  0  0  0  0  0  0  0  0  0  0
   -8.3250   -5.6930  -25.7150 H   0  0  0  0  0  0  0  0  0  0  0  0
  -11.2520    1.7900  -24.1800 H   0  0  0  0  0  0  0  0  0  0  0  0
  -10.8070   -2.0730  -22.2780 H   0  0  0  0  0  0  0  0  0  0  0  0
   -9.1370   -3.4020  -22.1990 H   0  0  0  0  0  0  0  0  0  0  0  0
   -1.7810    2.0980  -20.8590 H   0  0  0  0  0  0  0  0  0  0  0  0
   -2.6580    0.8230  -22.8290 H   0  0  0  0  0  0  0  0  0  0  0  0
   -4.6300    0.8790  -17.2440 H   0  0  0  0  0  0  0  0  0  0  0  0
   -2.8460    1.8240  -18.6490 H   0  0  0  0  0  0  0  0  0  0  0  0
   -4.5700   -0.7010  -22.5750 H   0  0  0  0  0  0  0  0  0  0  0  0
   -7.2060   -2.7390  -20.9580 H   0  0  0  0  0  0  0  0  0  0  0  0
   -6.1080   -2.1460  -22.1750 H   0  0  0  0  0  0  0  0  0  0  0  0
   -7.5000   -0.3950  -25.9190 H   0  0  0  0  0  0  0  0  0  0  0  0
   -6.0610   -0.8500  -25.0320 H   0  0  0  0  0  0  0  0  0  0  0  0
   -7.8000   -2.4970  -28.0670 H   0  0  0  0  0  0  0  0  0  0  0  0
   -6.2120   -2.9860  -28.7150 H   0  0  0  0  0  0  0  0  0  0  0  0
   -5.0590   -1.8680  -26.8180 H   0  0  0  0  0  0  0  0  0  0  0  0
   -6.0370   -0.6960  -27.6970 H   0  0  0  0  0  0  0  0  0  0  0  0
   -8.9870    0.9660  -23.2880 H   0  0  0  0  0  0  0  0  0  0  0  0
   -9.2270   -0.0140  -24.7190 H   0  0  0  0  0  0  0  0  0  0  0  0
  5  2  2  0
  6  3  2  0
  8  5  1  0
  8  7  1  0
  9  4  2  0
 12 10  2  0
 13 11  2  0
 14 10  1  0
 16 11  1  0
 18 17  1  0
 19  1  1  0
 19 12  1  0
 19 15  2  0
 20 13  1  0
 21 20  2  0
 22 14  2  0
 22 15  1  0
 23 16  2  0
 23 21  1  0
 24  4  1  0
 25 17  2  0
 26 18  2  0
 27  9  1  0
 28 24  2  0
 28 25  1  0
 29 26  1  0
 29 27  2  0
 29 28  1  0
 30  5  1  0
 30 20  1  0
 31  6  1  0
 31 27  1  0
 32 21  1  0
 33 30  1  0
 34 32  1  0
 34 33  1  0
 35 22  1  0
 36  6  1  0
 36 23  1  0
 36 35  1  0
  7 37  1  0
  7 38  1  0
  7 39  1  0
  8 40  1  0
  8 41  1  0
  9 42  1  0
 10 43  1  0
 11 44  1  0
 12 45  1  0
 13 46  1  0
 14 47  1  0
 15 48  1  0
 16 49  1  0
 17 50  1  0
 18 51  1  0
 24 52  1  0
 25 53  1  0
 26 54  1  0
 31 55  1  0
 31 56  1  0
 32 57  1  0
 32 58  1  0
 33 59  1  0
 33 60  1  0
 34 61  1  0
 34 62  1  0
 35 63  1  0
 35 64  1  0
M  END
>  <Favorite_cresset>
false

>  <Protein_cresset>
sars_P

>  <MW_cresset>
498.0

>  <#Atoms_cresset>
36

>  <SlogP_cresset>
6.4

>  <TPSA_cresset>
53.5

>  <Flexibility_cresset>
6.2

>  <HBA_cresset>
5

>  <HBD_cresset>
0

>  <Rof5_cresset>
1

>  <Confs_cresset>
0

>  <Poses_cresset>
0

$$$$
predicted (70)
  xed2sdf           3D
 
 52 54  0  0  0  0  0  0  0  0999 V2000
   -8.0680    0.6161  -21.0820 O   0  0  0  0  0  0  0  0  0  0  0  0
   -5.9370   -0.4710  -17.7240 N   0  0  0  0  0  0  0  0  0  0  0  0
   -7.8559   -0.3970  -21.6950 C   0  0  0  0  0  0  0  0  0  0  0  0
   -6.5710   -0.9990  -18.7709 C   0  0  0  0  0  0  0  0  0  0  0  0
   -2.6890    1.4229  -20.6270 C   0  0  0  0  0  0  0  0  0  0  0  0
   -3.3130    0.9011  -21.6970 C   0  0  0  0  0  0  0  0  0  0  0  0
   -4.8490    0.2100  -17.8829 C   0  0  0  0  0  0  0  0  0  0  0  0
   -3.1820    1.2080  -19.3620 C   0  0  0  0  0  0  0  0  0  0  0  0
   -4.4471    0.1770  -21.5590 C   0  0  0  0  0  0  0  0  0  0  0  0
   -6.1320   -0.8340  -20.0490 C   0  0  0  0  0  0  0  0  0  0  0  0
   -4.3199    0.4610  -19.1660 C   0  0  0  0  0  0  0  0  0  0  0  0
   -4.9701   -0.0791  -20.2960 C   0  0  0  0  0  0  0  0  0  0  0  0
   -8.4181   -0.5180  -22.8630 N   0  0  0  0  0  0  0  0  0  0  0  0
   -6.9160   -1.4360  -21.1589 C   0  0  0  0  0  0  0  0  0  0  0  0
  -13.6320   -3.2531  -24.1750 C   0  0  0  0  0  0  0  0  0  0  0  0
  -12.8881   -2.3379  -21.9280 C   0  0  0  0  0  0  0  0  0  0  0  0
  -10.5390   -0.6290  -25.6420 C   0  0  0  0  0  0  0  0  0  0  0  0
   -8.4200   -1.7490  -23.6260 C   0  0  0  0  0  0  0  0  0  0  0  0
   -9.1460    0.6340  -23.3959 C   0  0  0  0  0  0  0  0  0  0  0  0
   -9.8990   -2.1510  -23.7120 C   0  0  0  0  0  0  0  0  0  0  0  0
  -10.6089    0.3010  -23.3410 C   0  0  0  0  0  0  0  0  0  0  0  0
  -12.2430   -1.2891  -24.0970 C   0  0  0  0  0  0  0  0  0  0  0  0
  -12.5340   -2.5720  -23.3771 C   0  0  0  0  0  0  0  0  0  0  0  0
  -10.8451   -0.9500  -24.2170 C   0  0  0  0  0  0  0  0  0  0  0  0
   -7.4657   -1.5790  -18.5991 H   0  0  0  0  0  0  0  0  0  0  0  0
   -1.7955    2.0144  -20.7620 H   0  0  0  0  0  0  0  0  0  0  0  0
   -2.9023    1.0624  -22.6827 H   0  0  0  0  0  0  0  0  0  0  0  0
   -4.3346    0.5947  -17.0147 H   0  0  0  0  0  0  0  0  0  0  0  0
   -2.6691    1.6311  -18.5110 H   0  0  0  0  0  0  0  0  0  0  0  0
   -4.9497   -0.2049  -22.4354 H   0  0  0  0  0  0  0  0  0  0  0  0
   -7.4785   -2.2813  -20.7911 H   0  0  0  0  0  0  0  0  0  0  0  0
   -6.2477   -1.7617  -21.9423 H   0  0  0  0  0  0  0  0  0  0  0  0
  -14.5957   -2.9366  -23.8041 H   0  0  0  0  0  0  0  0  0  0  0  0
  -21.8790   -6.6650  -29.3320 H   0  0  0  0  0  0  0  0  0  0  0  0
  -13.5406   -4.3242  -24.0717 H   0  0  0  0  0  0  0  0  0  0  0  0
  -13.9623   -2.3203  -21.8181 H   0  0  0  0  0  0  0  0  0  0  0  0
  -12.4775   -3.1337  -21.3241 H   0  0  0  0  0  0  0  0  0  0  0  0
  -12.4774   -1.3926  -21.6053 H   0  0  0  0  0  0  0  0  0  0  0  0
   -9.4686   -0.5974  -25.7820 H   0  0  0  0  0  0  0  0  0  0  0  0
  -10.9634   -1.3889  -26.2813 H   0  0  0  0  0  0  0  0  0  0  0  0
  -10.9634    0.3316  -25.8937 H   0  0  0  0  0  0  0  0  0  0  0  0
   -7.8467   -2.5117  -23.1200 H   0  0  0  0  0  0  0  0  0  0  0  0
   -8.0114   -1.5865  -24.6124 H   0  0  0  0  0  0  0  0  0  0  0  0
   -8.8472    0.8200  -24.4171 H   0  0  0  0  0  0  0  0  0  0  0  0
   -8.9432    1.5092  -22.7965 H   0  0  0  0  0  0  0  0  0  0  0  0
   -9.9924   -2.9769  -24.4017 H   0  0  0  0  0  0  0  0  0  0  0  0
  -10.2295   -2.4615  -22.7318 H   0  0  0  0  0  0  0  0  0  0  0  0
  -11.1884    1.1295  -23.7209 H   0  0  0  0  0  0  0  0  0  0  0  0
  -10.9003    0.0954  -22.3216 H   0  0  0  0  0  0  0  0  0  0  0  0
  -12.7355   -0.4889  -23.5643 H   0  0  0  0  0  0  0  0  0  0  0  0
  -12.6542   -1.3651  -25.0927 H   0  0  0  0  0  0  0  0  0  0  0  0
  -11.6506   -3.1920  -23.4157 H   0  0  0  0  0  0  0  0  0  0  0  0
  3  1  2  0
  4  2  2  0
  6  5  1  0
  7  2  1  0
  8  5  2  0
  9  6  2  0
 10  4  1  0
 11  7  2  0
 11  8  1  0
 12  9  1  0
 12 10  2  0
 12 11  1  0
 13  3  1  0
 14  3  1  0
 14 10  1  0
 18 13  1  0
 19 13  1  0
 20 18  1  0
 21 19  1  0
 23 15  1  0
 23 16  1  0
 23 22  1  0
 24 17  1  0
 24 20  1  0
 24 21  1  0
 24 22  1  0
  4 25  1  0
  5 26  1  0
  6 27  1  0
  7 28  1  0
  8 29  1  0
  9 30  1  0
 14 31  1  0
 14 32  1  0
 15 33  1  0
 15 34  1  0
 15 35  1  0
 16 36  1  0
 16 37  1  0
 16 38  1  0
 17 39  1  0
 17 40  1  0
 17 41  1  0
 18 42  1  0
 18 43  1  0
 19 44  1  0
 19 45  1  0
 20 46  1  0
 20 47  1  0
 21 48  1  0
 21 49  1  0
 22 50  1  0
 22 51  1  0
 23 52  1  0
M  END
>  <Favorite_cresset>
false

>  <Protein_cresset>
sars_P

>  <MW_cresset>
324.5

>  <#Atoms_cresset>
24

>  <SlogP_cresset>
4.5

>  <TPSA_cresset>
33.2

>  <Flexibility_cresset>
5.2

>  <HBA_cresset>
3

>  <HBD_cresset>
0

>  <Rof5_cresset>
0

>  <Confs_cresset>
0

>  <Poses_cresset>
0

$$$$
predicted (71)
  xed2sdf           3D
 
 52 56  0  0  1  0  0  0  0  0999 V2000
   -7.3090    3.2650  -22.6680 N   0  0  0  0  0  0  0  0  0  0  0  0
  -10.5820    2.4700  -24.2090 O   0  0  0  0  0  0  0  0  0  0  0  0
   -8.5010    0.5830  -21.3230 O   0  0  0  0  0  0  0  0  0  0  0  0
   -6.8890    2.7400  -23.7600 C   0  0  0  0  0  0  0  0  0  0  0  0
   -6.0540   -0.6010  -17.8900 N   0  0  0  0  0  0  0  0  0  0  0  0
  -10.0730    1.3680  -24.0610 C   0  0  0  0  0  0  0  0  0  0  0  0
   -8.1350   -0.4620  -21.8260 C   0  0  0  0  0  0  0  0  0  0  0  0
   -6.7420   -1.0490  -18.9510 C   0  0  0  0  0  0  0  0  0  0  0  0
  -13.0790   -0.7700  -23.0260 C   0  0  0  0  0  0  0  0  0  0  0  0
  -12.2890    0.2840  -23.5020 C   0  0  0  0  0  0  0  0  0  0  0  0
  -11.0720   -2.0200  -22.5170 C   0  0  0  0  0  0  0  0  0  0  0  0
   -2.7260    1.2870  -20.8560 C   0  0  0  0  0  0  0  0  0  0  0  0
   -3.4330    0.8120  -21.9710 C   0  0  0  0  0  0  0  0  0  0  0  0
  -12.4660   -1.9200  -22.5370 C   0  0  0  0  0  0  0  0  0  0  0  0
  -10.8810    0.1880  -23.5410 C   0  0  0  0  0  0  0  0  0  0  0  0
  -10.2540   -0.9900  -23.0600 C   0  0  0  0  0  0  0  0  0  0  0  0
   -4.9120    0.0710  -18.1000 C   0  0  0  0  0  0  0  0  0  0  0  0
   -3.2180    1.0580  -19.5630 C   0  0  0  0  0  0  0  0  0  0  0  0
   -4.6270    0.1060  -21.7920 C   0  0  0  0  0  0  0  0  0  0  0  0
   -6.3020   -0.8430  -20.2640 C   0  0  0  0  0  0  0  0  0  0  0  0
   -4.3960    0.3240  -19.3800 C   0  0  0  0  0  0  0  0  0  0  0  0
   -5.1040   -0.1490  -20.4930 C   0  0  0  0  0  0  0  0  0  0  0  0
   -7.1160   -1.2280  -21.3340 N   0  0  0  0  0  0  0  0  0  0  0  0
   -8.7260    1.1400  -24.3550 N   0  0  0  0  0  0  0  0  0  0  0  0
   -7.8230    2.2310  -24.8460 C   0  0  0  0  0  0  0  0  0  0  0  0
   -7.9490   -3.3030  -24.3610 C   0  0  0  0  0  0  0  0  0  0  0  0
   -6.9190   -2.4740  -22.0510 C   0  0  0  0  0  0  0  0  0  0  0  0
   -8.1340   -0.2160  -24.2820 C   0  0  0  0  0  0  0  0  0  0  0  0
   -8.1250   -2.5460  -23.0080 C   0  0  0  0  0  0  0  0  0  0  0  0
   -8.7100   -1.0750  -23.0900 C   0  0  0  0  0  0  0  0  0  0  0  0
  -13.2180   -2.9190  -22.0340 F   0  0  0  0  0  0  0  0  0  0  0  0
   -6.5210    3.5480  -22.0830 H   0  0  0  0  0  0  0  0  0  0  0  0
   -5.8160    2.6980  -23.9380 H   0  0  0  0  0  0  0  0  0  0  0  0
   -7.6840   -1.5600  -18.7430 H   0  0  0  0  0  0  0  0  0  0  0  0
  -14.1600   -0.6780  -22.9810 H   0  0  0  0  0  0  0  0  0  0  0  0
  -12.7760    1.1940  -23.8350 H   0  0  0  0  0  0  0  0  0  0  0  0
  -10.6720   -2.9090  -22.0500 H   0  0  0  0  0  0  0  0  0  0  0  0
   -1.8020    1.8390  -20.9920 H   0  0  0  0  0  0  0  0  0  0  0  0
   -3.0650    0.9980  -22.9750 H   0  0  0  0  0  0  0  0  0  0  0  0
   -4.4190    0.4380  -17.2130 H   0  0  0  0  0  0  0  0  0  0  0  0
   -2.6890    1.4570  -18.7090 H   0  0  0  0  0  0  0  0  0  0  0  0
   -5.1780   -0.2370  -22.6620 H   0  0  0  0  0  0  0  0  0  0  0  0
   -8.4090    3.0870  -25.2190 H   0  0  0  0  0  0  0  0  0  0  0  0
   -7.2230    1.8650  -25.6920 H   0  0  0  0  0  0  0  0  0  0  0  0
   -6.9060   -3.4140  -24.6710 H   0  0  0  0  0  0  0  0  0  0  0  0
   -8.4850   -2.8220  -25.1850 H   0  0  0  0  0  0  0  0  0  0  0  0
   -8.3760   -4.3090  -24.2900 H   0  0  0  0  0  0  0  0  0  0  0  0
   -5.9510   -2.4680  -22.5520 H   0  0  0  0  0  0  0  0  0  0  0  0
   -6.9230   -3.3100  -21.3430 H   0  0  0  0  0  0  0  0  0  0  0  0
   -7.0420   -0.1190  -24.2100 H   0  0  0  0  0  0  0  0  0  0  0  0
   -8.3320   -0.6930  -25.2450 H   0  0  0  0  0  0  0  0  0  0  0  0
   -8.7690   -3.1870  -22.4020 H   0  0  0  0  0  0  0  0  0  0  0  0
  4  1  2  0
  6  2  2  0
  7  3  2  0
  8  5  2  0
 10  9  1  0
 13 12  1  0
 14  9  2  0
 14 11  1  0
 15  6  1  0
 15 10  2  0
 16 11  2  0
 16 15  1  0
 17  5  1  0
 18 12  2  0
 19 13  2  0
 20  8  1  0
 21 17  2  0
 21 18  1  0
 22 19  1  0
 22 20  2  0
 22 21  1  0
 23  7  1  0
 23 20  1  0
 24  6  1  0
 25  4  1  0
 25 24  1  0
 27 23  1  0
 28 24  1  0
 29 26  1  0
 29 27  1  0
 30  7  1  0
 30 16  1  0
 30 28  1  0
 30 29  1  0
 31 14  1  0
  1 32  1  0
  4 33  1  0
  8 34  1  0
  9 35  1  0
 10 36  1  0
 11 37  1  0
 12 38  1  0
 13 39  1  0
 17 40  1  0
 18 41  1  0
 19 42  1  0
 25 43  1  0
 25 44  1  0
 26 45  1  0
 26 46  1  0
 26 47  1  0
 27 48  1  0
 27 49  1  0
 28 50  1  0
 28 51  1  0
 29 52  1  0
M  END
>  <Favorite_cresset>
false

>  <Protein_cresset>
sars_P

>  <MW_cresset>
416.5

>  <#Atoms_cresset>
31

>  <SlogP_cresset>
3.7

>  <TPSA_cresset>
77.4

>  <Flexibility_cresset>
2.9

>  <HBA_cresset>
6

>  <HBD_cresset>
1

>  <Rof5_cresset>
0

>  <Confs_cresset>
0

>  <Poses_cresset>
0

$$$$
predicted (72)
  xed2sdf           3D
 
 41 44  0  0  0  0  0  0  0  0999 V2000
   -8.2070    0.2930  -21.2640 O   0  0  0  0  0  0  0  0  0  0  0  0
   -6.0580   -0.4510  -17.7790 N   0  0  0  0  0  0  0  0  0  0  0  0
  -13.0890   -0.7820  -23.0380 S   0  0  0  0  0  0  0  0  0  0  0  0
   -7.9530   -0.7860  -21.7800 C   0  0  0  0  0  0  0  0  0  0  0  0
   -6.6550   -1.1200  -18.7800 C   0  0  0  0  0  0  0  0  0  0  0  0
  -12.8850   -2.3170  -22.1930 C   0  0  0  0  0  0  0  0  0  0  0  0
  -11.3440   -0.6690  -23.3020 C   0  0  0  0  0  0  0  0  0  0  0  0
  -11.5880   -2.7460  -22.2640 C   0  0  0  0  0  0  0  0  0  0  0  0
   -2.7850    1.3060  -20.8490 C   0  0  0  0  0  0  0  0  0  0  0  0
   -3.4480    0.7120  -21.9300 C   0  0  0  0  0  0  0  0  0  0  0  0
  -10.7310   -1.8420  -22.9330 C   0  0  0  0  0  0  0  0  0  0  0  0
   -4.9650    0.2680  -18.0500 C   0  0  0  0  0  0  0  0  0  0  0  0
   -3.2920    1.1600  -19.5560 C   0  0  0  0  0  0  0  0  0  0  0  0
   -4.5930   -0.0790  -21.7200 C   0  0  0  0  0  0  0  0  0  0  0  0
   -6.1950   -1.0900  -20.0990 C   0  0  0  0  0  0  0  0  0  0  0  0
   -4.4340    0.3820  -19.3390 C   0  0  0  0  0  0  0  0  0  0  0  0
   -5.0740   -0.2810  -20.4070 C   0  0  0  0  0  0  0  0  0  0  0  0
   -8.3700   -1.1210  -23.0470 N   0  0  0  0  0  0  0  0  0  0  0  0
   -7.0390   -1.8040  -21.1350 C   0  0  0  0  0  0  0  0  0  0  0  0
   -9.3090   -2.2470  -23.2340 C   0  0  0  0  0  0  0  0  0  0  0  0
  -10.7480    0.2880  -24.2920 C   0  0  0  0  0  0  0  0  0  0  0  0
   -8.2300   -0.1300  -24.1250 C   0  0  0  0  0  0  0  0  0  0  0  0
   -9.3580    0.9240  -24.0760 C   0  0  0  0  0  0  0  0  0  0  0  0
   -7.5560   -1.6800  -18.5310 H   0  0  0  0  0  0  0  0  0  0  0  0
  -13.7250   -2.8280  -21.7520 H   0  0  0  0  0  0  0  0  0  0  0  0
  -11.2480   -3.6910  -21.8860 H   0  0  0  0  0  0  0  0  0  0  0  0
   -1.8890    1.8940  -21.0160 H   0  0  0  0  0  0  0  0  0  0  0  0
   -3.0670    0.8750  -22.9330 H   0  0  0  0  0  0  0  0  0  0  0  0
   -4.5330    0.8070  -17.2150 H   0  0  0  0  0  0  0  0  0  0  0  0
   -2.8010    1.6570  -18.7270 H   0  0  0  0  0  0  0  0  0  0  0  0
   -5.0970   -0.5120  -22.5800 H   0  0  0  0  0  0  0  0  0  0  0  0
   -7.6920   -2.5580  -20.6780 H   0  0  0  0  0  0  0  0  0  0  0  0
   -6.4220   -2.2990  -21.8990 H   0  0  0  0  0  0  0  0  0  0  0  0
   -9.2430   -2.6550  -24.2520 H   0  0  0  0  0  0  0  0  0  0  0  0
   -9.0350   -3.0530  -22.5390 H   0  0  0  0  0  0  0  0  0  0  0  0
  -11.4680    1.0750  -24.5290 H   0  0  0  0  0  0  0  0  0  0  0  0
  -10.6490   -0.3430  -25.1570 H   0  0  0  0  0  0  0  0  0  0  0  0
   -7.2570    0.3670  -23.9950 H   0  0  0  0  0  0  0  0  0  0  0  0
   -8.2520   -0.6230  -25.1070 H   0  0  0  0  0  0  0  0  0  0  0  0
   -9.1710    1.6550  -24.8800 H   0  0  0  0  0  0  0  0  0  0  0  0
   -9.3270    1.4960  -23.1410 H   0  0  0  0  0  0  0  0  0  0  0  0
  4  1  2  0
  5  2  2  0
  6  3  1  0
  7  3  1  0
  8  6  2  0
 10  9  1  0
 11  7  2  0
 11  8  1  0
 12  2  1  0
 13  9  2  0
 14 10  2  0
 15  5  1  0
 16 12  2  0
 16 13  1  0
 17 14  1  0
 17 15  2  0
 17 16  1  0
 18  4  1  0
 19  4  1  0
 19 15  1  0
 20 11  1  0
 20 18  1  0
 21  7  1  0
 22 18  1  0
 23 21  1  0
 23 22  1  0
  5 24  1  0
  6 25  1  0
  8 26  1  0
  9 27  1  0
 10 28  1  0
 12 29  1  0
 13 30  1  0
 14 31  1  0
 19 32  1  0
 19 33  1  0
 20 34  1  0
 20 35  1  0
 21 36  1  0
 21 37  1  0
 22 38  1  0
 22 39  1  0
 23 40  1  0
 23 41  1  0
M  END
>  <Favorite_cresset>
false

>  <Protein_cresset>
sars_P

>  <MW_cresset>
322.4

>  <#Atoms_cresset>
23

>  <SlogP_cresset>
3.8

>  <TPSA_cresset>
33.2

>  <Flexibility_cresset>
3.5

>  <HBA_cresset>
3

>  <HBD_cresset>
0

>  <Rof5_cresset>
0

>  <Confs_cresset>
0

>  <Poses_cresset>
0

$$$$
predicted (73)
  xed2sdf           3D
 
 50 53  0  0  1  0  0  0  0  0999 V2000
   -8.0590   -0.1970  -21.3510 O   0  0  0  0  0  0  0  0  0  0  0  0
   -5.9310   -0.2220  -17.6380 N   0  0  0  0  0  0  0  0  0  0  0  0
   -7.4770   -1.1730  -21.8100 C   0  0  0  0  0  0  0  0  0  0  0  0
   -6.3670   -1.0580  -18.6000 C   0  0  0  0  0  0  0  0  0  0  0  0
  -13.2430   -1.4110  -22.5830 C   0  0  0  0  0  0  0  0  0  0  0  0
  -12.8480   -0.2120  -23.1910 C   0  0  0  0  0  0  0  0  0  0  0  0
  -12.3850   -2.5220  -22.5990 C   0  0  0  0  0  0  0  0  0  0  0  0
  -11.6130   -0.1390  -23.8520 C   0  0  0  0  0  0  0  0  0  0  0  0
  -11.1550   -2.4600  -23.2850 C   0  0  0  0  0  0  0  0  0  0  0  0
   -2.6150    1.5210  -20.6800 C   0  0  0  0  0  0  0  0  0  0  0  0
   -3.1540    0.7650  -21.7290 C   0  0  0  0  0  0  0  0  0  0  0  0
  -10.7680   -1.2670  -23.9360 C   0  0  0  0  0  0  0  0  0  0  0  0
   -4.9150    0.6020  -17.9290 C   0  0  0  0  0  0  0  0  0  0  0  0
   -3.2030    1.4710  -19.4130 C   0  0  0  0  0  0  0  0  0  0  0  0
   -4.2350   -0.1010  -21.5040 C   0  0  0  0  0  0  0  0  0  0  0  0
   -5.8480   -1.0760  -19.8990 C   0  0  0  0  0  0  0  0  0  0  0  0
   -4.2880    0.6200  -19.1790 C   0  0  0  0  0  0  0  0  0  0  0  0
   -4.7850   -0.2050  -20.2110 C   0  0  0  0  0  0  0  0  0  0  0  0
   -7.6470   -1.5770  -23.1390 N   0  0  0  0  0  0  0  0  0  0  0  0
   -6.5030   -1.9750  -20.9310 C   0  0  0  0  0  0  0  0  0  0  0  0
   -7.0300   -2.7860  -23.7750 C   0  0  0  0  0  0  0  0  0  0  0  0
   -5.9140   -2.3650  -24.7660 C   0  0  0  0  0  0  0  0  0  0  0  0
   -6.4260   -1.3380  -25.8060 C   0  0  0  0  0  0  0  0  0  0  0  0
   -9.4960   -1.1820  -24.7980 C   0  0  0  0  0  0  0  0  0  0  0  0
   -7.1560   -0.1590  -25.1160 C   0  0  0  0  0  0  0  0  0  0  0  0
   -8.2440   -0.6230  -24.1000 C   0  0  0  0  0  0  0  0  0  0  0  0
   -7.1930   -1.7170  -18.3370 H   0  0  0  0  0  0  0  0  0  0  0  0
  -14.1940   -1.4690  -22.0620 H   0  0  0  0  0  0  0  0  0  0  0  0
  -13.4870    0.6660  -23.1280 H   0  0  0  0  0  0  0  0  0  0  0  0
  -12.6750   -3.4210  -22.0650 H   0  0  0  0  0  0  0  0  0  0  0  0
  -11.3180    0.7980  -24.3190 H   0  0  0  0  0  0  0  0  0  0  0  0
  -10.5140   -3.3380  -23.3180 H   0  0  0  0  0  0  0  0  0  0  0  0
   -1.7590    2.1620  -20.8690 H   0  0  0  0  0  0  0  0  0  0  0  0
   -2.7270    0.8550  -22.7210 H   0  0  0  0  0  0  0  0  0  0  0  0
   -4.6180    1.2940  -17.1460 H   0  0  0  0  0  0  0  0  0  0  0  0
   -2.8180    2.0920  -18.6140 H   0  0  0  0  0  0  0  0  0  0  0  0
   -4.6400   -0.6630  -22.3430 H   0  0  0  0  0  0  0  0  0  0  0  0
   -7.0880   -2.7550  -20.4420 H   0  0  0  0  0  0  0  0  0  0  0  0
   -5.7270   -2.4900  -21.5050 H   0  0  0  0  0  0  0  0  0  0  0  0
   -7.8050   -3.3540  -24.3130 H   0  0  0  0  0  0  0  0  0  0  0  0
   -6.6120   -3.4730  -23.0300 H   0  0  0  0  0  0  0  0  0  0  0  0
   -5.0860   -1.9130  -24.2060 H   0  0  0  0  0  0  0  0  0  0  0  0
   -5.5120   -3.2490  -25.2740 H   0  0  0  0  0  0  0  0  0  0  0  0
   -5.5810   -0.9540  -26.3970 H   0  0  0  0  0  0  0  0  0  0  0  0
   -7.1190   -1.8260  -26.5030 H   0  0  0  0  0  0  0  0  0  0  0  0
   -9.6690   -0.4240  -25.5560 H   0  0  0  0  0  0  0  0  0  0  0  0
   -9.2960   -2.1140  -25.3440 H   0  0  0  0  0  0  0  0  0  0  0  0
   -6.4090    0.4170  -24.5570 H   0  0  0  0  0  0  0  0  0  0  0  0
   -7.5900    0.5020  -25.8800 H   0  0  0  0  0  0  0  0  0  0  0  0
   -8.5930    0.2750  -23.5670 H   0  0  0  0  0  0  0  0  0  0  0  0
  3  1  2  0
  4  2  2  0
  6  5  2  0
  7  5  1  0
  8  6  1  0
  9  7  2  0
 11 10  1  0
 12  8  2  0
 12  9  1  0
 13  2  1  0
 14 10  2  0
 15 11  2  0
 16  4  1  0
 17 13  2  0
 17 14  1  0
 18 15  1  0
 18 16  2  0
 18 17  1  0
 19  3  1  0
 20  3  1  0
 20 16  1  0
 21 19  1  0
 22 21  1  0
 23 22  1  0
 24 12  1  0
 25 23  1  0
 26 19  1  0
 26 24  1  0
 26 25  1  0
  4 27  1  0
  5 28  1  0
  6 29  1  0
  7 30  1  0
  8 31  1  0
  9 32  1  0
 10 33  1  0
 11 34  1  0
 13 35  1  0
 14 36  1  0
 15 37  1  0
 20 38  1  0
 20 39  1  0
 21 40  1  0
 21 41  1  0
 22 42  1  0
 22 43  1  0
 23 44  1  0
 23 45  1  0
 24 46  1  0
 24 47  1  0
 25 48  1  0
 25 49  1  0
 26 50  1  0
M  END
>  <Favorite_cresset>
false

>  <Protein_cresset>
sars_P

>  <MW_cresset>
344.5

>  <#Atoms_cresset>
26

>  <SlogP_cresset>
4.4

>  <TPSA_cresset>
33.2

>  <Flexibility_cresset>
5.2

>  <HBA_cresset>
3

>  <HBD_cresset>
0

>  <Rof5_cresset>
0

>  <Confs_cresset>
0

>  <Poses_cresset>
0

$$$$
predicted (74)
  xed2sdf           3D
 
 43 47  0  0  0  0  0  0  0  0999 V2000
    9.8850   -3.4170   26.9970 Cl  0  0  0  0  0  0  0  0  0  0  0  0
    5.3230   -3.3950   20.8870 O   0  0  0  0  0  0  0  0  0  0  0  0
    8.6110   -0.2210   21.3290 O   0  0  0  0  0  0  0  0  0  0  0  0
    6.1240   -0.1810   17.6350 N   0  0  0  0  0  0  0  0  0  0  0  0
    6.2680   -2.8140   21.3980 C   0  0  0  0  0  0  0  0  0  0  0  0
    7.9870   -1.2330   21.6130 C   0  0  0  0  0  0  0  0  0  0  0  0
    6.7070   -0.8650   18.6420 C   0  0  0  0  0  0  0  0  0  0  0  0
   13.6430   -3.1910   25.6030 C   0  0  0  0  0  0  0  0  0  0  0  0
   13.4660   -2.7550   24.2890 C   0  0  0  0  0  0  0  0  0  0  0  0
   12.5300   -3.3570   26.4310 C   0  0  0  0  0  0  0  0  0  0  0  0
   12.1780   -2.5010   23.7990 C   0  0  0  0  0  0  0  0  0  0  0  0
    2.7990    1.4670   20.7280 C   0  0  0  0  0  0  0  0  0  0  0  0
    3.3980    0.7520   21.7720 C   0  0  0  0  0  0  0  0  0  0  0  0
   11.2380   -3.1140   25.9350 C   0  0  0  0  0  0  0  0  0  0  0  0
   11.0370   -2.7080   24.5960 C   0  0  0  0  0  0  0  0  0  0  0  0
    5.0140    0.5290   17.8980 C   0  0  0  0  0  0  0  0  0  0  0  0
    3.3200    1.3800   19.4310 C   0  0  0  0  0  0  0  0  0  0  0  0
    4.5240   -0.0390   21.5220 C   0  0  0  0  0  0  0  0  0  0  0  0
    6.2150   -0.8550   19.9470 C   0  0  0  0  0  0  0  0  0  0  0  0
    4.4520    0.5950   19.1780 C   0  0  0  0  0  0  0  0  0  0  0  0
    5.0620   -0.1120   20.2260 C   0  0  0  0  0  0  0  0  0  0  0  0
    6.8330   -1.6250   20.9470 N   0  0  0  0  0  0  0  0  0  0  0  0
    6.9700   -3.2440   22.4960 N   0  0  0  0  0  0  0  0  0  0  0  0
    8.6270   -1.5720   23.8930 C   0  0  0  0  0  0  0  0  0  0  0  0
    9.5670   -2.7760   22.3650 C   0  0  0  0  0  0  0  0  0  0  0  0
    9.6400   -2.8020   23.9530 C   0  0  0  0  0  0  0  0  0  0  0  0
    8.0930   -2.3830   22.6460 C   0  0  0  0  0  0  0  0  0  0  0  0
    7.5990   -1.4400   18.3990 H   0  0  0  0  0  0  0  0  0  0  0  0
   14.6340   -3.4470   25.9610 H   0  0  0  0  0  0  0  0  0  0  0  0
   14.3220   -2.6550   23.6320 H   0  0  0  0  0  0  0  0  0  0  0  0
   12.6750   -3.7290   27.4420 H   0  0  0  0  0  0  0  0  0  0  0  0
   12.0810   -2.2090   22.7670 H   0  0  0  0  0  0  0  0  0  0  0  0
    1.9450    2.1040   20.9290 H   0  0  0  0  0  0  0  0  0  0  0  0
    3.0030    0.8210   22.7800 H   0  0  0  0  0  0  0  0  0  0  0  0
    4.5870    1.0870   17.0670 H   0  0  0  0  0  0  0  0  0  0  0  0
    2.8520    1.9340   18.6300 H   0  0  0  0  0  0  0  0  0  0  0  0
    4.9830   -0.5680   22.3480 H   0  0  0  0  0  0  0  0  0  0  0  0
    6.8500   -4.1650   22.8990 H   0  0  0  0  0  0  0  0  0  0  0  0
    9.1030   -0.5980   23.7060 H   0  0  0  0  0  0  0  0  0  0  0  0
    7.9170   -1.4660   24.7230 H   0  0  0  0  0  0  0  0  0  0  0  0
   10.2050   -2.0290   21.8770 H   0  0  0  0  0  0  0  0  0  0  0  0
    9.7340   -3.7470   21.8840 H   0  0  0  0  0  0  0  0  0  0  0  0
    9.1570   -3.7050   24.3560 H   0  0  0  0  0  0  0  0  0  0  0  0
  5  2  2  0
  6  3  2  0
  7  4  2  0
  9  8  2  0
 10  8  1  0
 11  9  1  0
 13 12  1  0
 14  1  1  0
 14 10  2  0
 15 11  2  0
 15 14  1  0
 16  4  1  0
 17 12  2  0
 18 13  2  0
 19  7  1  0
 20 16  2  0
 20 17  1  0
 21 18  1  0
 21 19  2  0
 21 20  1  0
 22  5  1  0
 22  6  1  0
 22 19  1  0
 23  5  1  0
 26 15  1  0
 26 24  1  0
 26 25  1  0
 27  6  1  0
 27 23  1  0
 27 24  1  0
 27 25  1  0
  7 28  1  0
  8 29  1  0
  9 30  1  0
 10 31  1  0
 11 32  1  0
 12 33  1  0
 13 34  1  0
 16 35  1  0
 17 36  1  0
 18 37  1  0
 23 38  1  0
 24 39  1  0
 24 40  1  0
 25 41  1  0
 25 42  1  0
 26 43  1  0
M  END
>  <Favorite_cresset>
false

>  <Protein_cresset>
sars_P

>  <MW_cresset>
377.8

>  <#Atoms_cresset>
27

>  <SlogP_cresset>
4.3

>  <TPSA_cresset>
62.3

>  <Flexibility_cresset>
0.3

>  <HBA_cresset>
5

>  <HBD_cresset>
1

>  <Rof5_cresset>
0

>  <Confs_cresset>
0

>  <Poses_cresset>
0

$$$$
predicted (75)
  xed2sdf           3D
 
 66 71  0  0  1  0  0  0  0  0999 V2000
  -13.6920   -2.8750  -21.9440 Cl  0  0  0  0  0  0  0  0  0  0  0  0
  -10.5820    2.5610  -24.4120 O   0  0  0  0  0  0  0  0  0  0  0  0
   -5.9790    3.5690  -25.0860 O   0  0  0  0  0  0  0  0  0  0  0  0
   -8.5140    0.7260  -21.3470 O   0  0  0  0  0  0  0  0  0  0  0  0
   -6.9900   -5.8240  -28.0520 N   0  0  0  0  0  0  0  0  0  0  0  0
   -8.6440   -5.6190  -25.7710 N   0  0  0  0  0  0  0  0  0  0  0  0
   -6.0540   -0.4990  -17.9590 N   0  0  0  0  0  0  0  0  0  0  0  0
  -10.0950    1.4710  -24.1690 C   0  0  0  0  0  0  0  0  0  0  0  0
   -6.8960    3.0350  -24.4810 C   0  0  0  0  0  0  0  0  0  0  0  0
   -8.1530   -0.3120  -21.8680 C   0  0  0  0  0  0  0  0  0  0  0  0
   -8.1020   -6.5790  -27.9130 C   0  0  0  0  0  0  0  0  0  0  0  0
   -8.9170   -6.4840  -26.7710 C   0  0  0  0  0  0  0  0  0  0  0  0
   -6.7220   -4.9430  -27.0530 C   0  0  0  0  0  0  0  0  0  0  0  0
   -6.6870   -0.9610  -19.0550 C   0  0  0  0  0  0  0  0  0  0  0  0
   -7.5500   -4.8220  -25.9100 C   0  0  0  0  0  0  0  0  0  0  0  0
  -13.1950   -0.4980  -23.1530 C   0  0  0  0  0  0  0  0  0  0  0  0
  -12.3560    0.5090  -23.6330 C   0  0  0  0  0  0  0  0  0  0  0  0
  -11.2510   -1.8190  -22.5640 C   0  0  0  0  0  0  0  0  0  0  0  0
   -2.6880    1.5350  -20.7930 C   0  0  0  0  0  0  0  0  0  0  0  0
   -3.3620    1.0830  -21.9360 C   0  0  0  0  0  0  0  0  0  0  0  0
  -12.6410   -1.6530  -22.6070 C   0  0  0  0  0  0  0  0  0  0  0  0
  -10.9510    0.3610  -23.5950 C   0  0  0  0  0  0  0  0  0  0  0  0
  -10.3770   -0.8200  -23.0630 C   0  0  0  0  0  0  0  0  0  0  0  0
   -4.9360    0.2320  -18.1230 C   0  0  0  0  0  0  0  0  0  0  0  0
   -3.2060    1.2670  -19.5170 C   0  0  0  0  0  0  0  0  0  0  0  0
   -4.5440    0.3450  -21.8050 C   0  0  0  0  0  0  0  0  0  0  0  0
   -6.2370   -0.7010  -20.3620 C   0  0  0  0  0  0  0  0  0  0  0  0
   -4.3810    0.5070  -19.3840 C   0  0  0  0  0  0  0  0  0  0  0  0
   -5.0490    0.0360  -20.5290 C   0  0  0  0  0  0  0  0  0  0  0  0
   -7.0940    3.2290  -23.1210 N   0  0  0  0  0  0  0  0  0  0  0  0
   -7.3470   -3.8360  -24.9200 N   0  0  0  0  0  0  0  0  0  0  0  0
   -7.0500   -1.0460  -21.4710 N   0  0  0  0  0  0  0  0  0  0  0  0
   -8.7480    1.1870  -24.4210 N   0  0  0  0  0  0  0  0  0  0  0  0
   -6.3210    4.1810  -22.2990 C   0  0  0  0  0  0  0  0  0  0  0  0
   -7.9240    2.1470  -25.2310 C   0  0  0  0  0  0  0  0  0  0  0  0
   -8.4970   -3.4160  -24.0760 C   0  0  0  0  0  0  0  0  0  0  0  0
   -6.8870   -2.2790  -22.2590 C   0  0  0  0  0  0  0  0  0  0  0  0
   -8.2190   -0.2040  -24.2820 C   0  0  0  0  0  0  0  0  0  0  0  0
   -8.2730   -2.4360  -22.8920 C   0  0  0  0  0  0  0  0  0  0  0  0
   -8.8260   -0.9690  -23.0640 C   0  0  0  0  0  0  0  0  0  0  0  0
   -8.3430   -7.2650  -28.7270 H   0  0  0  0  0  0  0  0  0  0  0  0
   -9.8170   -7.0890  -26.6640 H   0  0  0  0  0  0  0  0  0  0  0  0
   -5.8500   -4.3020  -27.1980 H   0  0  0  0  0  0  0  0  0  0  0  0
   -7.5990   -1.5270  -18.8730 H   0  0  0  0  0  0  0  0  0  0  0  0
  -14.2720   -0.3720  -23.1970 H   0  0  0  0  0  0  0  0  0  0  0  0
  -12.8050    1.4100  -24.0410 H   0  0  0  0  0  0  0  0  0  0  0  0
  -10.8810   -2.7390  -22.1390 H   0  0  0  0  0  0  0  0  0  0  0  0
   -1.7750    2.1120  -20.8960 H   0  0  0  0  0  0  0  0  0  0  0  0
   -2.9780    1.3180  -22.9250 H   0  0  0  0  0  0  0  0  0  0  0  0
   -4.4970    0.6340  -17.2170 H   0  0  0  0  0  0  0  0  0  0  0  0
   -2.6960    1.6590  -18.6460 H   0  0  0  0  0  0  0  0  0  0  0  0
   -5.0660    0.0160  -22.6950 H   0  0  0  0  0  0  0  0  0  0  0  0
   -7.8760    2.7590  -22.6870 H   0  0  0  0  0  0  0  0  0  0  0  0
   -6.5380   -3.2280  -25.0170 H   0  0  0  0  0  0  0  0  0  0  0  0
   -5.2450    3.9930  -22.4060 H   0  0  0  0  0  0  0  0  0  0  0  0
   -6.5940    4.0640  -21.2460 H   0  0  0  0  0  0  0  0  0  0  0  0
   -6.5520    5.2110  -22.6010 H   0  0  0  0  0  0  0  0  0  0  0  0
   -7.3870    1.5950  -26.0050 H   0  0  0  0  0  0  0  0  0  0  0  0
   -8.5940    2.8490  -25.7380 H   0  0  0  0  0  0  0  0  0  0  0  0
   -9.2630   -2.9720  -24.7220 H   0  0  0  0  0  0  0  0  0  0  0  0
   -8.9240   -4.3270  -23.6370 H   0  0  0  0  0  0  0  0  0  0  0  0
   -6.1230   -2.1380  -23.0270 H   0  0  0  0  0  0  0  0  0  0  0  0
   -6.6260   -3.1320  -21.6250 H   0  0  0  0  0  0  0  0  0  0  0  0
   -7.1270   -0.1660  -24.1730 H   0  0  0  0  0  0  0  0  0  0  0  0
   -8.4290   -0.7490  -25.2050 H   0  0  0  0  0  0  0  0  0  0  0  0
   -8.8290   -2.8870  -22.0650 H   0  0  0  0  0  0  0  0  0  0  0  0
  8  2  2  0
  9  3  2  0
 10  4  2  0
 11  5  2  0
 12  6  2  0
 12 11  1  0
 13  5  1  0
 14  7  2  0
 15  6  1  0
 15 13  2  0
 17 16  1  0
 20 19  1  0
 21  1  1  0
 21 16  2  0
 21 18  1  0
 22  8  1  0
 22 17  2  0
 23 18  2  0
 23 22  1  0
 24  7  1  0
 25 19  2  0
 26 20  2  0
 27 14  1  0
 28 24  2  0
 28 25  1  0
 29 26  1  0
 29 27  2  0
 29 28  1  0
 30  9  1  0
 31 15  1  0
 32 10  1  0
 32 27  1  0
 33  8  1  0
 34 30  1  0
 35  9  1  0
 35 33  1  0
 36 31  1  0
 37 32  1  0
 38 33  1  0
 39 36  1  0
 39 37  1  0
 40 10  1  0
 40 23  1  0
 40 38  1  0
 40 39  1  0
 11 41  1  0
 12 42  1  0
 13 43  1  0
 14 44  1  0
 16 45  1  0
 17 46  1  0
 18 47  1  0
 19 48  1  0
 20 49  1  0
 24 50  1  0
 25 51  1  0
 26 52  1  0
 30 53  1  0
 31 54  1  0
 34 55  1  0
 34 56  1  0
 34 57  1  0
 35 58  1  0
 35 59  1  0
 36 60  1  0
 36 61  1  0
 37 62  1  0
 37 63  1  0
 38 64  1  0
 38 65  1  0
 39 66  1  0
M  END
>  <Favorite_cresset>
false

>  <Protein_cresset>
sars_P

>  <MW_cresset>
556.0

>  <#Atoms_cresset>
40

>  <SlogP_cresset>
2.9

>  <TPSA_cresset>
120.4

>  <Flexibility_cresset>
5.1

>  <HBA_cresset>
10

>  <HBD_cresset>
2

>  <Rof5_cresset>
1

>  <Confs_cresset>
0

>  <Poses_cresset>
0

$$$$
predicted (76)
  xed2sdf           3D
 
 65 70  0  0  1  0  0  0  0  0999 V2000
  -13.7050   -2.9780  -21.9210 Cl  0  0  0  0  0  0  0  0  0  0  0  0
  -10.7880    2.5300  -24.4030 O   0  0  0  0  0  0  0  0  0  0  0  0
   -8.7570    0.6220  -21.4360 O   0  0  0  0  0  0  0  0  0  0  0  0
   -6.1860   -0.5150  -17.9920 N   0  0  0  0  0  0  0  0  0  0  0  0
   -6.3100    6.8220  -22.5360 O   0  0  0  0  0  0  0  0  0  0  0  0
  -10.2810    1.4250  -24.2670 C   0  0  0  0  0  0  0  0  0  0  0  0
   -8.3200   -0.3770  -21.9700 C   0  0  0  0  0  0  0  0  0  0  0  0
   -6.8440   -0.9680  -19.0800 C   0  0  0  0  0  0  0  0  0  0  0  0
  -13.2920   -0.6210  -23.1730 C   0  0  0  0  0  0  0  0  0  0  0  0
  -12.4930    0.3980  -23.6840 C   0  0  0  0  0  0  0  0  0  0  0  0
  -11.2790   -1.8970  -22.6550 C   0  0  0  0  0  0  0  0  0  0  0  0
   -2.9020    1.5920  -20.8600 C   0  0  0  0  0  0  0  0  0  0  0  0
   -3.5950    1.1400  -21.9940 C   0  0  0  0  0  0  0  0  0  0  0  0
  -12.6810   -1.7560  -22.6370 C   0  0  0  0  0  0  0  0  0  0  0  0
  -11.0840    0.2660  -23.7400 C   0  0  0  0  0  0  0  0  0  0  0  0
  -10.4460   -0.9070  -23.2430 C   0  0  0  0  0  0  0  0  0  0  0  0
   -5.0660    0.2140  -18.1680 C   0  0  0  0  0  0  0  0  0  0  0  0
   -3.3870    1.2850  -19.5810 C   0  0  0  0  0  0  0  0  0  0  0  0
   -4.7620    0.3790  -21.8590 C   0  0  0  0  0  0  0  0  0  0  0  0
   -6.4240   -0.7010  -20.3950 C   0  0  0  0  0  0  0  0  0  0  0  0
   -4.5530    0.5150  -19.4390 C   0  0  0  0  0  0  0  0  0  0  0  0
   -5.2450    0.0530  -20.5790 C   0  0  0  0  0  0  0  0  0  0  0  0
   -7.2350   -1.0910  -21.4990 N   0  0  0  0  0  0  0  0  0  0  0  0
   -8.9270    1.1960  -24.5100 N   0  0  0  0  0  0  0  0  0  0  0  0
   -5.2290    5.8560  -22.5270 C   0  0  0  0  0  0  0  0  0  0  0  0
   -7.2190    6.6700  -23.6540 C   0  0  0  0  0  0  0  0  0  0  0  0
   -8.0170    2.3310  -24.7870 C   0  0  0  0  0  0  0  0  0  0  0  0
   -7.9830   -3.1960  -24.5040 C   0  0  0  0  0  0  0  0  0  0  0  0
   -6.9980   -2.3120  -22.2620 C   0  0  0  0  0  0  0  0  0  0  0  0
   -8.3140   -0.1540  -24.4270 C   0  0  0  0  0  0  0  0  0  0  0  0
   -5.8380    4.4360  -22.4340 C   0  0  0  0  0  0  0  0  0  0  0  0
   -7.8450    5.2530  -23.5990 C   0  0  0  0  0  0  0  0  0  0  0  0
   -7.3640    2.8210  -23.4730 C   0  0  0  0  0  0  0  0  0  0  0  0
   -8.2530   -2.4550  -23.1690 C   0  0  0  0  0  0  0  0  0  0  0  0
   -8.8840   -0.9990  -23.2500 C   0  0  0  0  0  0  0  0  0  0  0  0
   -6.8040    4.1900  -23.5360 N   0  0  0  0  0  0  0  0  0  0  0  0
   -7.7540   -1.5420  -18.8940 H   0  0  0  0  0  0  0  0  0  0  0  0
  -14.3760   -0.5160  -23.1820 H   0  0  0  0  0  0  0  0  0  0  0  0
  -12.9810    1.2990  -24.0480 H   0  0  0  0  0  0  0  0  0  0  0  0
  -10.8770   -2.7800  -22.1770 H   0  0  0  0  0  0  0  0  0  0  0  0
   -2.0010    2.1880  -20.9780 H   0  0  0  0  0  0  0  0  0  0  0  0
   -3.2320    1.3890  -22.9830 H   0  0  0  0  0  0  0  0  0  0  0  0
   -4.5820    0.5810  -17.2660 H   0  0  0  0  0  0  0  0  0  0  0  0
   -2.8630    1.6550  -18.7070 H   0  0  0  0  0  0  0  0  0  0  0  0
   -5.2880    0.0540  -22.7530 H   0  0  0  0  0  0  0  0  0  0  0  0
   -4.5690    6.0260  -21.6650 H   0  0  0  0  0  0  0  0  0  0  0  0
   -4.6240    5.9360  -23.4400 H   0  0  0  0  0  0  0  0  0  0  0  0
   -6.6920    6.8150  -24.6080 H   0  0  0  0  0  0  0  0  0  0  0  0
   -8.0260    7.4130  -23.5890 H   0  0  0  0  0  0  0  0  0  0  0  0
   -8.5890    3.1420  -25.2540 H   0  0  0  0  0  0  0  0  0  0  0  0
   -7.2320    2.0240  -25.4950 H   0  0  0  0  0  0  0  0  0  0  0  0
   -6.9190   -3.1810  -24.7660 H   0  0  0  0  0  0  0  0  0  0  0  0
   -8.5620   -2.7650  -25.3240 H   0  0  0  0  0  0  0  0  0  0  0  0
   -8.2960   -4.2440  -24.4350 H   0  0  0  0  0  0  0  0  0  0  0  0
   -6.0840   -2.1870  -22.8610 H   0  0  0  0  0  0  0  0  0  0  0  0
   -6.8900   -3.1650  -21.5800 H   0  0  0  0  0  0  0  0  0  0  0  0
   -7.2300   -0.0510  -24.2790 H   0  0  0  0  0  0  0  0  0  0  0  0
   -8.4940   -0.6530  -25.3860 H   0  0  0  0  0  0  0  0  0  0  0  0
   -5.0250    3.6990  -22.4710 H   0  0  0  0  0  0  0  0  0  0  0  0
   -6.3370    4.3330  -21.4620 H   0  0  0  0  0  0  0  0  0  0  0  0
   -8.4880    5.1210  -24.4800 H   0  0  0  0  0  0  0  0  0  0  0  0
   -8.4840    5.2000  -22.7080 H   0  0  0  0  0  0  0  0  0  0  0  0
   -8.1250    2.7870  -22.6810 H   0  0  0  0  0  0  0  0  0  0  0  0
   -6.5670    2.1100  -23.2260 H   0  0  0  0  0  0  0  0  0  0  0  0
   -8.9300   -3.0990  -22.6170 H   0  0  0  0  0  0  0  0  0  0  0  0
  6  2  2  0
  7  3  2  0
  8  4  2  0
 10  9  1  0
 13 12  1  0
 14  1  1  0
 14  9  2  0
 14 11  1  0
 15  6  1  0
 15 10  2  0
 16 11  2  0
 16 15  1  0
 17  4  1  0
 18 12  2  0
 19 13  2  0
 20  8  1  0
 21 17  2  0
 21 18  1  0
 22 19  1  0
 22 20  2  0
 22 21  1  0
 23  7  1  0
 23 20  1  0
 24  6  1  0
 25  5  1  0
 26  5  1  0
 27 24  1  0
 29 23  1  0
 30 24  1  0
 31 25  1  0
 32 26  1  0
 33 27  1  0
 34 28  1  0
 34 29  1  0
 35  7  1  0
 35 16  1  0
 35 30  1  0
 35 34  1  0
 36 31  1  0
 36 32  1  0
 36 33  1  0
  8 37  1  0
  9 38  1  0
 10 39  1  0
 11 40  1  0
 12 41  1  0
 13 42  1  0
 17 43  1  0
 18 44  1  0
 19 45  1  0
 25 46  1  0
 25 47  1  0
 26 48  1  0
 26 49  1  0
 27 50  1  0
 27 51  1  0
 28 52  1  0
 28 53  1  0
 28 54  1  0
 29 55  1  0
 29 56  1  0
 30 57  1  0
 30 58  1  0
 31 59  1  0
 31 60  1  0
 32 61  1  0
 32 62  1  0
 33 63  1  0
 33 64  1  0
 34 65  1  0
M  END
>  <Favorite_cresset>
false

>  <Protein_cresset>
sars_P

>  <MW_cresset>
505.0

>  <#Atoms_cresset>
36

>  <SlogP_cresset>
3.6

>  <TPSA_cresset>
66.0

>  <Flexibility_cresset>
4.8

>  <HBA_cresset>
7

>  <HBD_cresset>
0

>  <Rof5_cresset>
1

>  <Confs_cresset>
0

>  <Poses_cresset>
0

$$$$
predicted (77)
  xed2sdf           3D
 
 55 60  0  0  1  0  0  0  0  0999 V2000
  -10.8980    2.1530  -24.3020 O   0  0  0  0  0  0  0  0  0  0  0  0
   -8.8260    0.2560  -21.3670 O   0  0  0  0  0  0  0  0  0  0  0  0
   -7.5130    2.6140  -22.7750 N   0  0  0  0  0  0  0  0  0  0  0  0
   -6.1830   -0.7040  -18.0770 N   0  0  0  0  0  0  0  0  0  0  0  0
   -5.5370    3.6550  -23.3060 O   0  0  0  0  0  0  0  0  0  0  0  0
  -10.3890    1.0490  -24.1880 C   0  0  0  0  0  0  0  0  0  0  0  0
   -8.3770   -0.7170  -21.9440 C   0  0  0  0  0  0  0  0  0  0  0  0
   -6.4270    3.2590  -22.3390 C   0  0  0  0  0  0  0  0  0  0  0  0
   -6.8820   -1.1660  -19.1290 C   0  0  0  0  0  0  0  0  0  0  0  0
   -7.3200    2.5530  -24.1330 C   0  0  0  0  0  0  0  0  0  0  0  0
   -6.1400    3.1730  -24.4180 C   0  0  0  0  0  0  0  0  0  0  0  0
  -13.3330   -1.0710  -22.9960 C   0  0  0  0  0  0  0  0  0  0  0  0
  -12.5700   -0.0250  -23.5250 C   0  0  0  0  0  0  0  0  0  0  0  0
  -11.3010   -2.3230  -22.5670 C   0  0  0  0  0  0  0  0  0  0  0  0
   -2.8320    1.0300  -21.1090 C   0  0  0  0  0  0  0  0  0  0  0  0
   -3.5470    0.5310  -22.2080 C   0  0  0  0  0  0  0  0  0  0  0  0
  -12.6980   -2.2120  -22.5170 C   0  0  0  0  0  0  0  0  0  0  0  0
  -11.1650   -0.1230  -23.6160 C   0  0  0  0  0  0  0  0  0  0  0  0
  -10.5110   -1.2910  -23.1420 C   0  0  0  0  0  0  0  0  0  0  0  0
   -5.0250   -0.0610  -18.3090 C   0  0  0  0  0  0  0  0  0  0  0  0
   -3.3240    0.8520  -19.8060 C   0  0  0  0  0  0  0  0  0  0  0  0
   -4.7530   -0.1460  -22.0070 C   0  0  0  0  0  0  0  0  0  0  0  0
   -6.4460   -1.0070  -20.4540 C   0  0  0  0  0  0  0  0  0  0  0  0
   -4.5150    0.1460  -19.6010 C   0  0  0  0  0  0  0  0  0  0  0  0
   -5.2340   -0.3460  -20.6990 C   0  0  0  0  0  0  0  0  0  0  0  0
   -7.2700   -1.4080  -21.5220 N   0  0  0  0  0  0  0  0  0  0  0  0
   -9.0710    0.8100  -24.5710 N   0  0  0  0  0  0  0  0  0  0  0  0
   -8.2200    1.8920  -25.1550 C   0  0  0  0  0  0  0  0  0  0  0  0
   -8.2110   -3.6210  -24.4380 C   0  0  0  0  0  0  0  0  0  0  0  0
   -7.0730   -2.6660  -22.2270 C   0  0  0  0  0  0  0  0  0  0  0  0
   -8.4390   -0.5260  -24.4470 C   0  0  0  0  0  0  0  0  0  0  0  0
   -8.3410   -2.8120  -23.1010 C   0  0  0  0  0  0  0  0  0  0  0  0
   -8.9640   -1.3550  -23.2040 C   0  0  0  0  0  0  0  0  0  0  0  0
  -13.4450   -3.1930  -21.9750 F   0  0  0  0  0  0  0  0  0  0  0  0
   -6.1630    3.4800  -21.3090 H   0  0  0  0  0  0  0  0  0  0  0  0
   -7.8280   -1.6590  -18.9040 H   0  0  0  0  0  0  0  0  0  0  0  0
   -5.6290    3.3350  -25.3580 H   0  0  0  0  0  0  0  0  0  0  0  0
  -14.4120   -0.9870  -22.9110 H   0  0  0  0  0  0  0  0  0  0  0  0
  -13.0760    0.8750  -23.8590 H   0  0  0  0  0  0  0  0  0  0  0  0
  -10.8650   -3.2150  -22.1390 H   0  0  0  0  0  0  0  0  0  0  0  0
   -1.8980    1.5570  -21.2640 H   0  0  0  0  0  0  0  0  0  0  0  0
   -3.1750    0.6690  -23.2190 H   0  0  0  0  0  0  0  0  0  0  0  0
   -4.5030    0.3130  -17.4340 H   0  0  0  0  0  0  0  0  0  0  0  0
   -2.7830    1.2580  -18.9610 H   0  0  0  0  0  0  0  0  0  0  0  0
   -5.3080   -0.5070  -22.8670 H   0  0  0  0  0  0  0  0  0  0  0  0
   -8.8400    2.6690  -25.6280 H   0  0  0  0  0  0  0  0  0  0  0  0
   -7.5880    1.4710  -25.9490 H   0  0  0  0  0  0  0  0  0  0  0  0
   -7.1770   -3.7620  -24.7710 H   0  0  0  0  0  0  0  0  0  0  0  0
   -8.7560   -3.1660  -25.2720 H   0  0  0  0  0  0  0  0  0  0  0  0
   -8.6470   -4.6200  -24.3240 H   0  0  0  0  0  0  0  0  0  0  0  0
   -6.1400   -2.6450  -22.7930 H   0  0  0  0  0  0  0  0  0  0  0  0
   -6.9990   -3.4810  -21.5000 H   0  0  0  0  0  0  0  0  0  0  0  0
   -7.3500   -0.3850  -24.4020 H   0  0  0  0  0  0  0  0  0  0  0  0
   -8.6340   -1.0550  -25.3870 H   0  0  0  0  0  0  0  0  0  0  0  0
   -8.9400   -3.4310  -22.4280 H   0  0  0  0  0  0  0  0  0  0  0  0
  6  1  2  0
  7  2  2  0
  8  3  2  0
  8  5  1  0
  9  4  2  0
 10  3  1  0
 11  5  1  0
 11 10  2  0
 13 12  1  0
 16 15  1  0
 17 12  2  0
 17 14  1  0
 18  6  1  0
 18 13  2  0
 19 14  2  0
 19 18  1  0
 20  4  1  0
 21 15  2  0
 22 16  2  0
 23  9  1  0
 24 20  2  0
 24 21  1  0
 25 22  1  0
 25 23  2  0
 25 24  1  0
 26  7  1  0
 26 23  1  0
 27  6  1  0
 28 10  1  0
 28 27  1  0
 30 26  1  0
 31 27  1  0
 32 29  1  0
 32 30  1  0
 33  7  1  0
 33 19  1  0
 33 31  1  0
 33 32  1  0
 34 17  1  0
  8 35  1  0
  9 36  1  0
 11 37  1  0
 12 38  1  0
 13 39  1  0
 14 40  1  0
 15 41  1  0
 16 42  1  0
 20 43  1  0
 21 44  1  0
 22 45  1  0
 28 46  1  0
 28 47  1  0
 29 48  1  0
 29 49  1  0
 29 50  1  0
 30 51  1  0
 30 52  1  0
 31 53  1  0
 31 54  1  0
 32 55  1  0
M  END
>  <Favorite_cresset>
false

>  <Protein_cresset>
sars_P

>  <MW_cresset>
456.5

>  <#Atoms_cresset>
34

>  <SlogP_cresset>
3.6

>  <TPSA_cresset>
79.5

>  <Flexibility_cresset>
2.9

>  <HBA_cresset>
7

>  <HBD_cresset>
0

>  <Rof5_cresset>
0

>  <Confs_cresset>
0

>  <Poses_cresset>
0

$$$$
predicted (78)
  xed2sdf           3D
 
 56 60  0  0  1  0  0  0  0  0999 V2000
  -13.7060   -2.9460  -21.7400 Cl  0  0  0  0  0  0  0  0  0  0  0  0
  -10.7690    2.4740  -24.4070 O   0  0  0  0  0  0  0  0  0  0  0  0
   -5.7530    2.4100  -24.5260 O   0  0  0  0  0  0  0  0  0  0  0  0
   -8.6610    0.6670  -21.4640 O   0  0  0  0  0  0  0  0  0  0  0  0
   -6.1620   -0.5010  -17.9750 N   0  0  0  0  0  0  0  0  0  0  0  0
  -10.2680    1.3740  -24.2350 C   0  0  0  0  0  0  0  0  0  0  0  0
   -6.9230    2.6500  -24.2970 C   0  0  0  0  0  0  0  0  0  0  0  0
   -8.2760   -0.3770  -21.9500 C   0  0  0  0  0  0  0  0  0  0  0  0
   -6.8280   -0.9490  -19.0580 C   0  0  0  0  0  0  0  0  0  0  0  0
  -13.2910   -0.6320  -23.0780 C   0  0  0  0  0  0  0  0  0  0  0  0
  -12.4880    0.3710  -23.6180 C   0  0  0  0  0  0  0  0  0  0  0  0
  -11.2910   -1.9080  -22.5330 C   0  0  0  0  0  0  0  0  0  0  0  0
   -2.7620    1.3940  -20.8560 C   0  0  0  0  0  0  0  0  0  0  0  0
   -3.4620    0.9510  -21.9870 C   0  0  0  0  0  0  0  0  0  0  0  0
  -12.6900   -1.7530  -22.5100 C   0  0  0  0  0  0  0  0  0  0  0  0
  -11.0790    0.2360  -23.6610 C   0  0  0  0  0  0  0  0  0  0  0  0
  -10.4520   -0.9310  -23.1420 C   0  0  0  0  0  0  0  0  0  0  0  0
   -5.0160    0.1810  -18.1570 C   0  0  0  0  0  0  0  0  0  0  0  0
   -3.2810    1.1550  -19.5760 C   0  0  0  0  0  0  0  0  0  0  0  0
   -4.6730    0.2580  -21.8500 C   0  0  0  0  0  0  0  0  0  0  0  0
   -6.3890   -0.7170  -20.3730 C   0  0  0  0  0  0  0  0  0  0  0  0
   -4.4800    0.4380  -19.4280 C   0  0  0  0  0  0  0  0  0  0  0  0
   -5.1800   -0.0170  -20.5650 C   0  0  0  0  0  0  0  0  0  0  0  0
   -7.3310    3.4270  -23.2240 N   0  0  0  0  0  0  0  0  0  0  0  0
   -7.2060   -1.1040  -21.4690 N   0  0  0  0  0  0  0  0  0  0  0  0
   -8.9250    1.1120  -24.5280 N   0  0  0  0  0  0  0  0  0  0  0  0
   -6.4320    4.1830  -22.3340 C   0  0  0  0  0  0  0  0  0  0  0  0
   -8.0640    2.1300  -25.2000 C   0  0  0  0  0  0  0  0  0  0  0  0
   -8.0080   -3.2880  -24.3840 C   0  0  0  0  0  0  0  0  0  0  0  0
   -7.0020   -2.3430  -22.2040 C   0  0  0  0  0  0  0  0  0  0  0  0
   -8.3360   -0.2430  -24.4010 C   0  0  0  0  0  0  0  0  0  0  0  0
   -8.2720   -2.5000  -23.0740 C   0  0  0  0  0  0  0  0  0  0  0  0
   -8.8920   -1.0420  -23.1840 C   0  0  0  0  0  0  0  0  0  0  0  0
   -7.7550   -1.4930  -18.8670 H   0  0  0  0  0  0  0  0  0  0  0  0
  -14.3730   -0.5240  -23.0790 H   0  0  0  0  0  0  0  0  0  0  0  0
  -12.9790    1.2550  -24.0140 H   0  0  0  0  0  0  0  0  0  0  0  0
  -10.8940   -2.7880  -22.0430 H   0  0  0  0  0  0  0  0  0  0  0  0
   -1.8270    1.9350  -20.9770 H   0  0  0  0  0  0  0  0  0  0  0  0
   -3.0700    1.1540  -22.9760 H   0  0  0  0  0  0  0  0  0  0  0  0
   -4.5260    0.5410  -17.2570 H   0  0  0  0  0  0  0  0  0  0  0  0
   -2.7540    1.5310  -18.7080 H   0  0  0  0  0  0  0  0  0  0  0  0
   -5.2080   -0.0550  -22.7420 H   0  0  0  0  0  0  0  0  0  0  0  0
   -8.3250    3.5840  -23.1250 H   0  0  0  0  0  0  0  0  0  0  0  0
   -5.4040    4.2060  -22.7220 H   0  0  0  0  0  0  0  0  0  0  0  0
   -6.4190    3.6950  -21.3570 H   0  0  0  0  0  0  0  0  0  0  0  0
   -6.8120    5.2100  -22.2220 H   0  0  0  0  0  0  0  0  0  0  0  0
   -7.6220    1.7110  -26.1150 H   0  0  0  0  0  0  0  0  0  0  0  0
   -8.6680    2.9960  -25.4910 H   0  0  0  0  0  0  0  0  0  0  0  0
   -6.9440   -3.2870  -24.6580 H   0  0  0  0  0  0  0  0  0  0  0  0
   -8.5950   -2.9000  -25.2180 H   0  0  0  0  0  0  0  0  0  0  0  0
   -8.3090   -4.3370  -24.2630 H   0  0  0  0  0  0  0  0  0  0  0  0
   -6.1050   -2.2430  -22.8280 H   0  0  0  0  0  0  0  0  0  0  0  0
   -6.8740   -3.1920  -21.5220 H   0  0  0  0  0  0  0  0  0  0  0  0
   -7.2480   -0.1520  -24.2740 H   0  0  0  0  0  0  0  0  0  0  0  0
   -8.5390   -0.7760  -25.3380 H   0  0  0  0  0  0  0  0  0  0  0  0
   -8.9510   -3.1270  -22.4920 H   0  0  0  0  0  0  0  0  0  0  0  0
  6  2  2  0
  7  3  2  0
  8  4  2  0
  9  5  2  0
 11 10  1  0
 14 13  1  0
 15  1  1  0
 15 10  2  0
 15 12  1  0
 16  6  1  0
 16 11  2  0
 17 12  2  0
 17 16  1  0
 18  5  1  0
 19 13  2  0
 20 14  2  0
 21  9  1  0
 22 18  2  0
 22 19  1  0
 23 20  1  0
 23 21  2  0
 23 22  1  0
 24  7  1  0
 25  8  1  0
 25 21  1  0
 26  6  1  0
 27 24  1  0
 28  7  1  0
 28 26  1  0
 30 25  1  0
 31 26  1  0
 32 29  1  0
 32 30  1  0
 33  8  1  0
 33 17  1  0
 33 31  1  0
 33 32  1  0
  9 34  1  0
 10 35  1  0
 11 36  1  0
 12 37  1  0
 13 38  1  0
 14 39  1  0
 18 40  1  0
 19 41  1  0
 20 42  1  0
 24 43  1  0
 27 44  1  0
 27 45  1  0
 27 46  1  0
 28 47  1  0
 28 48  1  0
 29 49  1  0
 29 50  1  0
 29 51  1  0
 30 52  1  0
 30 53  1  0
 31 54  1  0
 31 55  1  0
 32 56  1  0
M  END
>  <Favorite_cresset>
false

>  <Protein_cresset>
sars_P

>  <MW_cresset>
462.9

>  <#Atoms_cresset>
33

>  <SlogP_cresset>
3.0

>  <TPSA_cresset>
82.6

>  <Flexibility_cresset>
2.9

>  <HBA_cresset>
7

>  <HBD_cresset>
1

>  <Rof5_cresset>
0

>  <Confs_cresset>
0

>  <Poses_cresset>
0

$$$$
predicted (79)
  xed2sdf           3D
 
 45 49  0  0  0  0  0  0  0  0999 V2000
   -5.2460   -3.4000  -21.4790 O   0  0  0  0  0  0  0  0  0  0  0  0
   -8.3460   -0.1190  -20.8760 O   0  0  0  0  0  0  0  0  0  0  0  0
  -11.1400   -2.2800  -24.8490 O   0  0  0  0  0  0  0  0  0  0  0  0
  -11.8160    0.0750  -24.2260 O   0  0  0  0  0  0  0  0  0  0  0  0
   -5.9290   -0.1940  -17.7360 N   0  0  0  0  0  0  0  0  0  0  0  0
   -6.1970   -2.6990  -21.7560 C   0  0  0  0  0  0  0  0  0  0  0  0
   -7.8410   -1.0840  -21.4270 C   0  0  0  0  0  0  0  0  0  0  0  0
   -6.4150   -0.9560  -18.7300 C   0  0  0  0  0  0  0  0  0  0  0  0
   -2.5370    1.5010  -20.7580 C   0  0  0  0  0  0  0  0  0  0  0  0
   -3.0670    0.7380  -21.8090 C   0  0  0  0  0  0  0  0  0  0  0  0
   -4.8690    0.5870  -18.0020 C   0  0  0  0  0  0  0  0  0  0  0  0
   -3.1310    1.4510  -19.4880 C   0  0  0  0  0  0  0  0  0  0  0  0
   -4.1750   -0.0890  -21.5840 C   0  0  0  0  0  0  0  0  0  0  0  0
   -5.8790   -0.9590  -20.0210 C   0  0  0  0  0  0  0  0  0  0  0  0
   -4.2330    0.6200  -19.2550 C   0  0  0  0  0  0  0  0  0  0  0  0
   -4.7520   -0.1660  -20.3000 C   0  0  0  0  0  0  0  0  0  0  0  0
   -6.6140   -1.5850  -21.0450 N   0  0  0  0  0  0  0  0  0  0  0  0
   -7.0940   -2.9020  -22.7870 N   0  0  0  0  0  0  0  0  0  0  0  0
  -10.1590   -1.1910  -22.8330 N   0  0  0  0  0  0  0  0  0  0  0  0
   -7.1800   -4.0420  -23.7100 C   0  0  0  0  0  0  0  0  0  0  0  0
   -8.8090   -0.8990  -23.4960 C   0  0  0  0  0  0  0  0  0  0  0  0
   -9.6210   -2.3890  -22.0900 C   0  0  0  0  0  0  0  0  0  0  0  0
  -13.1610   -3.4510  -22.8770 C   0  0  0  0  0  0  0  0  0  0  0  0
  -12.9820   -2.6970  -21.6290 C   0  0  0  0  0  0  0  0  0  0  0  0
   -8.2050   -2.0300  -22.6100 C   0  0  0  0  0  0  0  0  0  0  0  0
  -13.0350   -1.9390  -22.9110 C   0  0  0  0  0  0  0  0  0  0  0  0
  -11.5030   -1.2900  -23.8450 S   0  0  0  0  0  0  0  0  0  0  0  0
   -7.3080   -1.5400  -18.5090 H   0  0  0  0  0  0  0  0  0  0  0  0
   -1.6810    2.1440  -20.9320 H   0  0  0  0  0  0  0  0  0  0  0  0
   -2.6240    0.7890  -22.8000 H   0  0  0  0  0  0  0  0  0  0  0  0
   -4.5650    1.2470  -17.1970 H   0  0  0  0  0  0  0  0  0  0  0  0
   -2.7370    2.0590  -18.6850 H   0  0  0  0  0  0  0  0  0  0  0  0
   -4.5720   -0.6650  -22.4140 H   0  0  0  0  0  0  0  0  0  0  0  0
   -6.1720   -4.3810  -23.9890 H   0  0  0  0  0  0  0  0  0  0  0  0
   -7.7230   -3.7400  -24.6150 H   0  0  0  0  0  0  0  0  0  0  0  0
   -7.7210   -4.8630  -23.2210 H   0  0  0  0  0  0  0  0  0  0  0  0
   -8.7710   -1.1310  -24.5650 H   0  0  0  0  0  0  0  0  0  0  0  0
   -8.4090    0.1150  -23.3660 H   0  0  0  0  0  0  0  0  0  0  0  0
   -9.7290   -2.3730  -21.0020 H   0  0  0  0  0  0  0  0  0  0  0  0
   -9.9710   -3.3490  -22.4760 H   0  0  0  0  0  0  0  0  0  0  0  0
  -14.1270   -3.9450  -22.9550 H   0  0  0  0  0  0  0  0  0  0  0  0
  -12.2960   -4.0020  -23.2540 H   0  0  0  0  0  0  0  0  0  0  0  0
  -13.8160   -2.6790  -20.9230 H   0  0  0  0  0  0  0  0  0  0  0  0
  -12.0040   -2.7760  -21.2350 H   0  0  0  0  0  0  0  0  0  0  0  0
  -13.9090   -1.3100  -23.0740 H   0  0  0  0  0  0  0  0  0  0  0  0
  6  1  2  0
  7  2  2  0
  8  5  2  0
 10  9  1  0
 11  5  1  0
 12  9  2  0
 13 10  2  0
 14  8  1  0
 15 11  2  0
 15 12  1  0
 16 13  1  0
 16 14  2  0
 16 15  1  0
 17  6  1  0
 17  7  1  0
 17 14  1  0
 18  6  1  0
 20 18  1  0
 21 19  1  0
 22 19  1  0
 24 23  1  0
 25  7  1  0
 25 18  1  0
 25 21  1  0
 25 22  1  0
 26 23  1  0
 26 24  1  0
 27  3  2  0
 27  4  2  0
 27 19  1  0
 27 26  1  0
  8 28  1  0
  9 29  1  0
 10 30  1  0
 11 31  1  0
 12 32  1  0
 13 33  1  0
 20 34  1  0
 20 35  1  0
 20 36  1  0
 21 37  1  0
 21 38  1  0
 22 39  1  0
 22 40  1  0
 23 41  1  0
 23 42  1  0
 24 43  1  0
 24 44  1  0
 26 45  1  0
M  END
>  <Favorite_cresset>
false

>  <Protein_cresset>
sars_P

>  <MW_cresset>
386.4

>  <#Atoms_cresset>
27

>  <SlogP_cresset>
1.2

>  <TPSA_cresset>
90.9

>  <Flexibility_cresset>
2.3

>  <HBA_cresset>
8

>  <HBD_cresset>
0

>  <Rof5_cresset>
0

>  <Confs_cresset>
0

>  <Poses_cresset>
0

$$$$
predicted (80)
  xed2sdf           3D
 
 60 65  0  0  1  0  0  0  0  0999 V2000
  -13.5870   -2.8140  -21.8830 Cl  0  0  0  0  0  0  0  0  0  0  0  0
  -10.0670    2.3320  -24.5390 O   0  0  0  0  0  0  0  0  0  0  0  0
   -5.2060    2.7460  -24.7020 O   0  0  0  0  0  0  0  0  0  0  0  0
   -8.4510    0.4500  -21.3600 O   0  0  0  0  0  0  0  0  0  0  0  0
   -6.0040   -0.4780  -17.9070 N   0  0  0  0  0  0  0  0  0  0  0  0
   -9.6690    1.2050  -24.2810 C   0  0  0  0  0  0  0  0  0  0  0  0
   -6.3430    2.4960  -24.3330 C   0  0  0  0  0  0  0  0  0  0  0  0
   -8.0300   -0.5840  -21.8460 C   0  0  0  0  0  0  0  0  0  0  0  0
   -6.6300   -1.0110  -18.9720 C   0  0  0  0  0  0  0  0  0  0  0  0
  -12.9300   -0.5040  -23.1630 C   0  0  0  0  0  0  0  0  0  0  0  0
  -12.0210    0.4280  -23.6770 C   0  0  0  0  0  0  0  0  0  0  0  0
  -11.0690   -1.9470  -22.5560 C   0  0  0  0  0  0  0  0  0  0  0  0
   -2.5690    1.2930  -20.8400 C   0  0  0  0  0  0  0  0  0  0  0  0
   -3.2330    0.7560  -21.9520 C   0  0  0  0  0  0  0  0  0  0  0  0
  -12.4510   -1.6840  -22.5910 C   0  0  0  0  0  0  0  0  0  0  0  0
  -10.6240    0.1650  -23.6980 C   0  0  0  0  0  0  0  0  0  0  0  0
  -10.1360   -1.0470  -23.1370 C   0  0  0  0  0  0  0  0  0  0  0  0
   -4.8740    0.2200  -18.1130 C   0  0  0  0  0  0  0  0  0  0  0  0
   -3.1200    1.1420  -19.5580 C   0  0  0  0  0  0  0  0  0  0  0  0
   -4.4350    0.0540  -21.7920 C   0  0  0  0  0  0  0  0  0  0  0  0
   -6.1540   -0.8580  -20.2820 C   0  0  0  0  0  0  0  0  0  0  0  0
   -4.3010    0.4020  -19.3850 C   0  0  0  0  0  0  0  0  0  0  0  0
   -4.9580   -0.1490  -20.5000 C   0  0  0  0  0  0  0  0  0  0  0  0
   -6.8230    2.9620  -23.1270 N   0  0  0  0  0  0  0  0  0  0  0  0
   -6.9550   -1.2860  -21.3590 N   0  0  0  0  0  0  0  0  0  0  0  0
   -8.3340    0.8180  -24.5140 N   0  0  0  0  0  0  0  0  0  0  0  0
   -5.9910    3.6130  -22.1020 C   0  0  0  0  0  0  0  0  0  0  0  0
   -6.7170    1.1320  -26.4770 C   0  0  0  0  0  0  0  0  0  0  0  0
   -7.6820    2.2860  -26.5230 C   0  0  0  0  0  0  0  0  0  0  0  0
   -7.3240    1.6670  -25.1860 C   0  0  0  0  0  0  0  0  0  0  0  0
   -7.7920   -3.5770  -24.1760 C   0  0  0  0  0  0  0  0  0  0  0  0
   -6.7700   -2.5600  -22.0390 C   0  0  0  0  0  0  0  0  0  0  0  0
   -7.9090   -0.5860  -24.2980 C   0  0  0  0  0  0  0  0  0  0  0  0
   -8.0590   -2.7460  -22.8860 C   0  0  0  0  0  0  0  0  0  0  0  0
   -8.5990   -1.2690  -23.0820 C   0  0  0  0  0  0  0  0  0  0  0  0
   -7.5640   -1.5390  -18.7740 H   0  0  0  0  0  0  0  0  0  0  0  0
  -14.0010   -0.3020  -23.1930 H   0  0  0  0  0  0  0  0  0  0  0  0
  -12.4180    1.3600  -24.0700 H   0  0  0  0  0  0  0  0  0  0  0  0
  -10.7520   -2.8530  -22.0550 H   0  0  0  0  0  0  0  0  0  0  0  0
   -1.6390    1.8380  -20.9770 H   0  0  0  0  0  0  0  0  0  0  0  0
   -2.8200    0.8920  -22.9450 H   0  0  0  0  0  0  0  0  0  0  0  0
   -4.4380    0.6680  -17.2300 H   0  0  0  0  0  0  0  0  0  0  0  0
   -2.6270    1.5980  -18.7090 H   0  0  0  0  0  0  0  0  0  0  0  0
   -4.9480   -0.3260  -22.6720 H   0  0  0  0  0  0  0  0  0  0  0  0
   -7.7900    2.7790  -22.9070 H   0  0  0  0  0  0  0  0  0  0  0  0
   -5.0160    3.9190  -22.5060 H   0  0  0  0  0  0  0  0  0  0  0  0
   -5.8040    2.8880  -21.3020 H   0  0  0  0  0  0  0  0  0  0  0  0
   -6.5200    4.4900  -21.7010 H   0  0  0  0  0  0  0  0  0  0  0  0
   -5.6750    1.3480  -26.7030 H   0  0  0  0  0  0  0  0  0  0  0  0
   -7.0590    0.1730  -26.8590 H   0  0  0  0  0  0  0  0  0  0  0  0
   -7.2800    3.2780  -26.7350 H   0  0  0  0  0  0  0  0  0  0  0  0
   -8.6550    2.0770  -26.9630 H   0  0  0  0  0  0  0  0  0  0  0  0
   -6.7370   -3.5370  -24.4820 H   0  0  0  0  0  0  0  0  0  0  0  0
   -8.4120   -3.2390  -25.0100 H   0  0  0  0  0  0  0  0  0  0  0  0
   -8.0450   -4.6320  -24.0240 H   0  0  0  0  0  0  0  0  0  0  0  0
   -5.8820   -2.4870  -22.6790 H   0  0  0  0  0  0  0  0  0  0  0  0
   -6.6250   -3.3760  -21.3230 H   0  0  0  0  0  0  0  0  0  0  0  0
   -6.8190   -0.6210  -24.1510 H   0  0  0  0  0  0  0  0  0  0  0  0
   -8.1490   -1.1370  -25.2130 H   0  0  0  0  0  0  0  0  0  0  0  0
   -8.7640   -3.3190  -22.2740 H   0  0  0  0  0  0  0  0  0  0  0  0
  6  2  2  0
  7  3  2  0
  8  4  2  0
  9  5  2  0
 11 10  1  0
 14 13  1  0
 15  1  1  0
 15 10  2  0
 15 12  1  0
 16  6  1  0
 16 11  2  0
 17 12  2  0
 17 16  1  0
 18  5  1  0
 19 13  2  0
 20 14  2  0
 21  9  1  0
 22 18  2  0
 22 19  1  0
 23 20  1  0
 23 21  2  0
 23 22  1  0
 24  7  1  0
 25  8  1  0
 25 21  1  0
 26  6  1  0
 27 24  1  0
 29 28  1  0
 30  7  1  0
 30 26  1  0
 30 28  1  0
 30 29  1  0
 32 25  1  0
 33 26  1  0
 34 31  1  0
 34 32  1  0
 35  8  1  0
 35 17  1  0
 35 33  1  0
 35 34  1  0
  9 36  1  0
 10 37  1  0
 11 38  1  0
 12 39  1  0
 13 40  1  0
 14 41  1  0
 18 42  1  0
 19 43  1  0
 20 44  1  0
 24 45  1  0
 27 46  1  0
 27 47  1  0
 27 48  1  0
 28 49  1  0
 28 50  1  0
 29 51  1  0
 29 52  1  0
 31 53  1  0
 31 54  1  0
 31 55  1  0
 32 56  1  0
 32 57  1  0
 33 58  1  0
 33 59  1  0
 34 60  1  0
M  END
>  <Favorite_cresset>
false

>  <Protein_cresset>
sars_P

>  <MW_cresset>
489.0

>  <#Atoms_cresset>
35

>  <SlogP_cresset>
3.6

>  <TPSA_cresset>
82.6

>  <Flexibility_cresset>
1.9

>  <HBA_cresset>
7

>  <HBD_cresset>
1

>  <Rof5_cresset>
0

>  <Confs_cresset>
0

>  <Poses_cresset>
0

$$$$
predicted (81)
  xed2sdf           3D
 
 40 42  0  0  0  0  0  0  0  0999 V2000
   -8.4570    0.6090  -21.3490 O   0  0  0  0  0  0  0  0  0  0  0  0
   -6.0920   -0.6640  -17.8320 N   0  0  0  0  0  0  0  0  0  0  0  0
   -8.4270   -0.5230  -21.7950 C   0  0  0  0  0  0  0  0  0  0  0  0
  -12.0590   -2.1050  -23.2920 C   0  0  0  0  0  0  0  0  0  0  0  0
  -12.3930   -0.5720  -23.3760 C   0  0  0  0  0  0  0  0  0  0  0  0
  -10.8490   -2.6630  -22.5440 C   0  0  0  0  0  0  0  0  0  0  0  0
  -11.2650    0.5140  -23.3770 C   0  0  0  0  0  0  0  0  0  0  0  0
   -6.8490   -1.1580  -18.8250 C   0  0  0  0  0  0  0  0  0  0  0  0
   -2.9710    1.1800  -20.9790 C   0  0  0  0  0  0  0  0  0  0  0  0
   -3.7470    0.6970  -22.0440 C   0  0  0  0  0  0  0  0  0  0  0  0
   -4.9840    0.0140  -18.1150 C   0  0  0  0  0  0  0  0  0  0  0  0
   -3.3960    0.9670  -19.6640 C   0  0  0  0  0  0  0  0  0  0  0  0
   -4.9360   -0.0070  -21.8010 C   0  0  0  0  0  0  0  0  0  0  0  0
   -6.5260   -0.9850  -20.1740 C   0  0  0  0  0  0  0  0  0  0  0  0
   -4.5680    0.2450  -19.4220 C   0  0  0  0  0  0  0  0  0  0  0  0
   -5.3510   -0.2560  -20.4840 C   0  0  0  0  0  0  0  0  0  0  0  0
   -9.2110   -0.8940  -22.8820 N   0  0  0  0  0  0  0  0  0  0  0  0
   -7.4660   -1.5740  -21.2250 C   0  0  0  0  0  0  0  0  0  0  0  0
   -9.5360   -2.2800  -23.2100 C   0  0  0  0  0  0  0  0  0  0  0  0
   -9.8210    0.1160  -23.7640 C   0  0  0  0  0  0  0  0  0  0  0  0
  -12.9460   -2.6350  -22.9210 H   0  0  0  0  0  0  0  0  0  0  0  0
  -11.8850   -2.4620  -24.3120 H   0  0  0  0  0  0  0  0  0  0  0  0
  -13.1330   -0.2970  -22.6140 H   0  0  0  0  0  0  0  0  0  0  0  0
  -12.9690   -0.4510  -24.3010 H   0  0  0  0  0  0  0  0  0  0  0  0
  -10.9350   -3.7490  -22.6110 H   0  0  0  0  0  0  0  0  0  0  0  0
  -10.8450   -2.4170  -21.4850 H   0  0  0  0  0  0  0  0  0  0  0  0
  -11.5700    1.3240  -24.0520 H   0  0  0  0  0  0  0  0  0  0  0  0
  -11.2350    1.0000  -22.4010 H   0  0  0  0  0  0  0  0  0  0  0  0
   -7.7460   -1.6970  -18.5180 H   0  0  0  0  0  0  0  0  0  0  0  0
   -2.0520    1.7290  -21.1690 H   0  0  0  0  0  0  0  0  0  0  0  0
   -3.4320    0.8680  -23.0680 H   0  0  0  0  0  0  0  0  0  0  0  0
   -4.4230    0.3880  -17.2650 H   0  0  0  0  0  0  0  0  0  0  0  0
   -2.8120    1.3520  -18.8340 H   0  0  0  0  0  0  0  0  0  0  0  0
   -5.5270   -0.3510  -22.6420 H   0  0  0  0  0  0  0  0  0  0  0  0
   -8.0470   -2.4020  -20.8020 H   0  0  0  0  0  0  0  0  0  0  0  0
   -6.9000   -2.0190  -22.0450 H   0  0  0  0  0  0  0  0  0  0  0  0
   -8.7380   -2.9710  -22.9150 H   0  0  0  0  0  0  0  0  0  0  0  0
   -9.6270   -2.3790  -24.2940 H   0  0  0  0  0  0  0  0  0  0  0  0
   -9.7770   -0.2330  -24.7990 H   0  0  0  0  0  0  0  0  0  0  0  0
   -9.2040    1.0230  -23.7260 H   0  0  0  0  0  0  0  0  0  0  0  0
  3  1  2  0
  5  4  1  0
  6  4  1  0
  7  5  1  0
  8  2  2  0
 10  9  1  0
 11  2  1  0
 12  9  2  0
 13 10  2  0
 14  8  1  0
 15 11  2  0
 15 12  1  0
 16 13  1  0
 16 14  2  0
 16 15  1  0
 17  3  1  0
 18  3  1  0
 18 14  1  0
 19  6  1  0
 19 17  1  0
 20  7  1  0
 20 17  1  0
  4 21  1  0
  4 22  1  0
  5 23  1  0
  5 24  1  0
  6 25  1  0
  6 26  1  0
  7 27  1  0
  7 28  1  0
  8 29  1  0
  9 30  1  0
 10 31  1  0
 11 32  1  0
 12 33  1  0
 13 34  1  0
 18 35  1  0
 18 36  1  0
 19 37  1  0
 19 38  1  0
 20 39  1  0
 20 40  1  0
M  END
>  <Favorite_cresset>
false

>  <Protein_cresset>
sars_P

>  <MW_cresset>
268.4

>  <#Atoms_cresset>
20

>  <SlogP_cresset>
3.2

>  <TPSA_cresset>
33.2

>  <Flexibility_cresset>
4.4

>  <HBA_cresset>
3

>  <HBD_cresset>
0

>  <Rof5_cresset>
0

>  <Confs_cresset>
0

>  <Poses_cresset>
0

$$$$
predicted (82)
  xed2sdf           3D
 
 54 57  0  0  1  0  0  0  0  0999 V2000
   -8.1170    0.0640  -21.2490 O   0  0  0  0  0  0  0  0  0  0  0  0
   -5.8490   -0.6900  -17.9170 N   0  0  0  0  0  0  0  0  0  0  0  0
   -7.9140   -0.7050  -26.1610 O   0  0  0  0  0  0  0  0  0  0  0  0
   -7.8800   -0.9560  -21.8810 C   0  0  0  0  0  0  0  0  0  0  0  0
   -6.4110   -1.4140  -18.9010 C   0  0  0  0  0  0  0  0  0  0  0  0
   -7.1230    2.8830  -25.6330 C   0  0  0  0  0  0  0  0  0  0  0  0
   -8.0510    3.2110  -24.6370 C   0  0  0  0  0  0  0  0  0  0  0  0
   -7.0790    1.5770  -26.1480 C   0  0  0  0  0  0  0  0  0  0  0  0
   -8.8740    2.2150  -24.0940 C   0  0  0  0  0  0  0  0  0  0  0  0
   -2.8080    1.2990  -21.1180 C   0  0  0  0  0  0  0  0  0  0  0  0
   -3.4510    0.6350  -22.1710 C   0  0  0  0  0  0  0  0  0  0  0  0
   -7.9410    0.5770  -25.6430 C   0  0  0  0  0  0  0  0  0  0  0  0
   -8.8000    0.8760  -24.5490 C   0  0  0  0  0  0  0  0  0  0  0  0
   -4.8370    0.1300  -18.2370 C   0  0  0  0  0  0  0  0  0  0  0  0
   -3.2470    1.1120  -19.8010 C   0  0  0  0  0  0  0  0  0  0  0  0
   -4.5050   -0.2540  -21.9090 C   0  0  0  0  0  0  0  0  0  0  0  0
   -6.0180   -1.3160  -20.2500 C   0  0  0  0  0  0  0  0  0  0  0  0
   -4.3230    0.2530  -19.5380 C   0  0  0  0  0  0  0  0  0  0  0  0
   -4.9410   -0.4590  -20.5820 C   0  0  0  0  0  0  0  0  0  0  0  0
   -8.5080   -1.2230  -23.1100 N   0  0  0  0  0  0  0  0  0  0  0  0
   -6.7720   -1.2490  -26.8510 C   0  0  0  0  0  0  0  0  0  0  0  0
   -6.8820   -1.9890  -21.3170 C   0  0  0  0  0  0  0  0  0  0  0  0
   -8.4670   -2.5570  -23.7900 C   0  0  0  0  0  0  0  0  0  0  0  0
  -11.0510   -2.4250  -22.1090 C   0  0  0  0  0  0  0  0  0  0  0  0
   -9.8330   -3.0530  -24.2970 C   0  0  0  0  0  0  0  0  0  0  0  0
  -10.8290   -0.8110  -24.0950 C   0  0  0  0  0  0  0  0  0  0  0  0
  -10.9790   -2.2670  -23.6420 C   0  0  0  0  0  0  0  0  0  0  0  0
   -9.4670   -0.2070  -23.6640 C   0  0  0  0  0  0  0  0  0  0  0  0
   -7.2580   -2.0380  -18.6150 H   0  0  0  0  0  0  0  0  0  0  0  0
   -6.4370    3.6390  -26.0030 H   0  0  0  0  0  0  0  0  0  0  0  0
   -8.0940    4.2270  -24.2490 H   0  0  0  0  0  0  0  0  0  0  0  0
   -6.3570    1.3520  -26.9280 H   0  0  0  0  0  0  0  0  0  0  0  0
   -9.5210    2.4790  -23.2600 H   0  0  0  0  0  0  0  0  0  0  0  0
   -1.9790    1.9690  -21.3220 H   0  0  0  0  0  0  0  0  0  0  0  0
   -3.1350    0.8090  -23.1940 H   0  0  0  0  0  0  0  0  0  0  0  0
   -4.4440    0.7310  -17.4270 H   0  0  0  0  0  0  0  0  0  0  0  0
   -2.7600    1.6370  -18.9880 H   0  0  0  0  0  0  0  0  0  0  0  0
   -4.9810   -0.7560  -22.7460 H   0  0  0  0  0  0  0  0  0  0  0  0
   -5.8680   -1.0970  -26.2480 H   0  0  0  0  0  0  0  0  0  0  0  0
   -6.6340   -0.7810  -27.8340 H   0  0  0  0  0  0  0  0  0  0  0  0
   -6.9100   -2.3280  -26.9980 H   0  0  0  0  0  0  0  0  0  0  0  0
   -7.4800   -2.7980  -20.8830 H   0  0  0  0  0  0  0  0  0  0  0  0
   -6.2720   -2.4340  -22.1170 H   0  0  0  0  0  0  0  0  0  0  0  0
   -8.0970   -3.3150  -23.0980 H   0  0  0  0  0  0  0  0  0  0  0  0
   -7.7730   -2.5360  -24.6350 H   0  0  0  0  0  0  0  0  0  0  0  0
  -10.6550   -1.5430  -21.5970 H   0  0  0  0  0  0  0  0  0  0  0  0
  -12.0830   -2.5920  -21.7530 H   0  0  0  0  0  0  0  0  0  0  0  0
  -10.4300   -3.2650  -21.7940 H   0  0  0  0  0  0  0  0  0  0  0  0
   -9.8840   -2.9160  -25.3860 H   0  0  0  0  0  0  0  0  0  0  0  0
   -9.9420   -4.1300  -24.1290 H   0  0  0  0  0  0  0  0  0  0  0  0
  -10.9200   -0.7970  -25.1640 H   0  0  0  0  0  0  0  0  0  0  0  0
  -11.6700   -0.2160  -23.7300 H   0  0  0  0  0  0  0  0  0  0  0  0
  -11.9010   -2.6760  -24.0220 H   0  0  0  0  0  0  0  0  0  0  0  0
   -9.7950    0.3670  -22.7990 H   0  0  0  0  0  0  0  0  0  0  0  0
  4  1  2  0
  5  2  2  0
  7  6  2  0
  8  6  1  0
  9  7  1  0
 11 10  1  0
 12  3  1  0
 12  8  2  0
 13  9  2  0
 13 12  1  0
 14  2  1  0
 15 10  2  0
 16 11  2  0
 17  5  1  0
 18 14  2  0
 18 15  1  0
 19 16  1  0
 19 17  2  0
 19 18  1  0
 20  4  1  0
 21  3  1  0
 22  4  1  0
 22 17  1  0
 23 20  1  0
 25 23  1  0
 27 24  1  0
 27 25  1  0
 27 26  1  0
 28 13  1  0
 28 20  1  0
 28 26  1  0
  5 29  1  0
  6 30  1  0
  7 31  1  0
  8 32  1  0
  9 33  1  0
 10 34  1  0
 11 35  1  0
 14 36  1  0
 15 37  1  0
 16 38  1  0
 21 39  1  0
 21 40  1  0
 21 41  1  0
 22 42  1  0
 22 43  1  0
 23 44  1  0
 23 45  1  0
 24 46  1  0
 24 47  1  0
 24 48  1  0
 25 49  1  0
 25 50  1  0
 26 51  1  0
 26 52  1  0
 27 53  1  0
 28 54  1  0
M  END
>  <Favorite_cresset>
false

>  <Protein_cresset>
sars_P

>  <MW_cresset>
374.5

>  <#Atoms_cresset>
28

>  <SlogP_cresset>
4.8

>  <TPSA_cresset>
42.4

>  <Flexibility_cresset>
3.9

>  <HBA_cresset>
4

>  <HBD_cresset>
0

>  <Rof5_cresset>
0

>  <Confs_cresset>
0

>  <Poses_cresset>
0

$$$$
predicted (83)
  xed2sdf           3D
 
 46 50  0  0  1  0  0  0  0  0999 V2000
   -5.0480   -3.5430  -20.7920 O   0  0  0  0  0  0  0  0  0  0  0  0
   -7.8560   -0.1000  -21.7700 O   0  0  0  0  0  0  0  0  0  0  0  0
   -3.1000   -0.4860  -26.4440 O   0  0  0  0  0  0  0  0  0  0  0  0
   -4.3580    1.5360  -27.3700 O   0  0  0  0  0  0  0  0  0  0  0  0
   -5.8960   -0.2800  -17.6750 N   0  0  0  0  0  0  0  0  0  0  0  0
   -9.2620   -2.5270  -25.2230 O   0  0  0  0  0  0  0  0  0  0  0  0
   -5.7950   -2.8340  -21.4350 C   0  0  0  0  0  0  0  0  0  0  0  0
   -7.2430   -1.1500  -21.9040 C   0  0  0  0  0  0  0  0  0  0  0  0
   -6.2870   -1.0090  -18.7370 C   0  0  0  0  0  0  0  0  0  0  0  0
   -7.8860   -1.2200  -26.7170 C   0  0  0  0  0  0  0  0  0  0  0  0
   -6.7110   -0.4830  -26.9650 C   0  0  0  0  0  0  0  0  0  0  0  0
   -5.9860   -0.9220  -24.7090 C   0  0  0  0  0  0  0  0  0  0  0  0
   -2.5190    1.8460  -20.4450 C   0  0  0  0  0  0  0  0  0  0  0  0
   -2.9490    1.1220  -21.5520 C   0  0  0  0  0  0  0  0  0  0  0  0
   -8.1440   -1.7490  -25.4350 C   0  0  0  0  0  0  0  0  0  0  0  0
   -7.1970   -1.5940  -24.4070 C   0  0  0  0  0  0  0  0  0  0  0  0
   -5.7450   -0.3220  -25.9600 C   0  0  0  0  0  0  0  0  0  0  0  0
   -4.8840    0.5920  -17.8380 C   0  0  0  0  0  0  0  0  0  0  0  0
   -3.1380    1.6530  -19.2080 C   0  0  0  0  0  0  0  0  0  0  0  0
   -3.9890    0.1960  -21.4090 C   0  0  0  0  0  0  0  0  0  0  0  0
   -5.7110   -0.8740  -19.9950 C   0  0  0  0  0  0  0  0  0  0  0  0
   -4.2070    0.7590  -19.0610 C   0  0  0  0  0  0  0  0  0  0  0  0
   -4.6340    0.0130  -20.1690 C   0  0  0  0  0  0  0  0  0  0  0  0
   -6.2430   -1.5990  -21.0750 N   0  0  0  0  0  0  0  0  0  0  0  0
   -6.3600   -3.1410  -22.6390 N   0  0  0  0  0  0  0  0  0  0  0  0
   -3.7480    1.4080  -24.9120 N   0  0  0  0  0  0  0  0  0  0  0  0
   -9.8640   -2.6660  -23.9110 C   0  0  0  0  0  0  0  0  0  0  0  0
   -8.7980   -2.9470  -22.8210 C   0  0  0  0  0  0  0  0  0  0  0  0
   -7.4360   -2.2060  -23.0110 C   0  0  0  0  0  0  0  0  0  0  0  0
   -4.1440    0.5380  -26.3200 S   0  0  0  0  0  0  0  0  0  0  0  0
   -7.1170   -1.6980  -18.6030 H   0  0  0  0  0  0  0  0  0  0  0  0
   -8.5820   -1.3930  -27.5340 H   0  0  0  0  0  0  0  0  0  0  0  0
   -6.5320   -0.0840  -27.9560 H   0  0  0  0  0  0  0  0  0  0  0  0
   -5.2020   -0.9040  -23.9760 H   0  0  0  0  0  0  0  0  0  0  0  0
   -1.7050    2.5490  -20.5500 H   0  0  0  0  0  0  0  0  0  0  0  0
   -2.4620    1.2790  -22.5080 H   0  0  0  0  0  0  0  0  0  0  0  0
   -4.6420    1.1950  -16.9670 H   0  0  0  0  0  0  0  0  0  0  0  0
   -2.7660    2.2040  -18.3700 H   0  0  0  0  0  0  0  0  0  0  0  0
   -4.2840   -0.3810  -22.2680 H   0  0  0  0  0  0  0  0  0  0  0  0
   -6.1390   -3.9900  -23.1480 H   0  0  0  0  0  0  0  0  0  0  0  0
   -2.7350    1.4740  -24.7980 H   0  0  0  0  0  0  0  0  0  0  0  0
   -4.1230    0.9940  -24.0620 H   0  0  0  0  0  0  0  0  0  0  0  0
  -10.6150   -3.4680  -23.8990 H   0  0  0  0  0  0  0  0  0  0  0  0
  -10.4010   -1.7480  -23.6680 H   0  0  0  0  0  0  0  0  0  0  0  0
   -9.2150   -2.7140  -21.8310 H   0  0  0  0  0  0  0  0  0  0  0  0
   -8.6090   -4.0260  -22.7850 H   0  0  0  0  0  0  0  0  0  0  0  0
  7  1  2  0
  8  2  2  0
  9  5  2  0
 11 10  2  0
 14 13  1  0
 15  6  1  0
 15 10  1  0
 16 12  1  0
 16 15  2  0
 17 11  1  0
 17 12  2  0
 18  5  1  0
 19 13  2  0
 20 14  2  0
 21  9  1  0
 22 18  2  0
 22 19  1  0
 23 20  1  0
 23 21  2  0
 23 22  1  0
 24  7  1  0
 24  8  1  0
 24 21  1  0
 25  7  1  0
 27  6  1  0
 28 27  1  0
 29  8  1  0
 29 16  1  0
 29 25  1  0
 29 28  1  0
 30  3  2  0
 30  4  2  0
 30 17  1  0
 30 26  1  0
  9 31  1  0
 10 32  1  0
 11 33  1  0
 12 34  1  0
 13 35  1  0
 14 36  1  0
 18 37  1  0
 19 38  1  0
 20 39  1  0
 25 40  1  0
 26 41  1  0
 26 42  1  0
 27 43  1  0
 27 44  1  0
 28 45  1  0
 28 46  1  0
M  END
>  <Favorite_cresset>
false

>  <Protein_cresset>
sars_P

>  <MW_cresset>
424.4

>  <#Atoms_cresset>
30

>  <SlogP_cresset>
1.6

>  <TPSA_cresset>
131.7

>  <Flexibility_cresset>
2.3

>  <HBA_cresset>
9

>  <HBD_cresset>
3

>  <Rof5_cresset>
0

>  <Confs_cresset>
0

>  <Poses_cresset>
0

$$$$
predicted (84)
  xed2sdf           3D
 
 63 68  0  0  1  0  0  0  0  0999 V2000
  -11.0060    2.2400  -24.2610 O   0  0  0  0  0  0  0  0  0  0  0  0
   -6.0640    2.1930  -24.6370 O   0  0  0  0  0  0  0  0  0  0  0  0
   -8.7510    0.5580  -21.4710 O   0  0  0  0  0  0  0  0  0  0  0  0
   -6.1840   -0.5940  -17.9940 N   0  0  0  0  0  0  0  0  0  0  0  0
  -10.4960    1.1380  -24.1490 C   0  0  0  0  0  0  0  0  0  0  0  0
   -7.2430    2.4080  -24.4050 C   0  0  0  0  0  0  0  0  0  0  0  0
   -8.3670   -0.4940  -21.9480 C   0  0  0  0  0  0  0  0  0  0  0  0
   -6.8710   -1.0360  -19.0640 C   0  0  0  0  0  0  0  0  0  0  0  0
  -13.4060   -0.9870  -22.8370 C   0  0  0  0  0  0  0  0  0  0  0  0
  -12.6660    0.0570  -23.4070 C   0  0  0  0  0  0  0  0  0  0  0  0
  -11.3450   -2.1940  -22.4110 C   0  0  0  0  0  0  0  0  0  0  0  0
   -2.9560    1.4520  -20.9610 C   0  0  0  0  0  0  0  0  0  0  0  0
   -3.6730    0.9960  -22.0750 C   0  0  0  0  0  0  0  0  0  0  0  0
  -12.7450   -2.1070  -22.3420 C   0  0  0  0  0  0  0  0  0  0  0  0
  -11.2540   -0.0230  -23.5210 C   0  0  0  0  0  0  0  0  0  0  0  0
  -10.5720   -1.1710  -23.0280 C   0  0  0  0  0  0  0  0  0  0  0  0
   -5.0610    0.1200  -18.1970 C   0  0  0  0  0  0  0  0  0  0  0  0
   -3.4110    1.1700  -19.6640 C   0  0  0  0  0  0  0  0  0  0  0  0
   -4.8470    0.2550  -21.8930 C   0  0  0  0  0  0  0  0  0  0  0  0
   -6.4760   -0.7860  -20.3820 C   0  0  0  0  0  0  0  0  0  0  0  0
   -4.5800    0.4120  -19.4810 C   0  0  0  0  0  0  0  0  0  0  0  0
   -5.2990   -0.0480  -20.5990 C   0  0  0  0  0  0  0  0  0  0  0  0
   -7.6810    3.1190  -23.3040 N   0  0  0  0  0  0  0  0  0  0  0  0
   -7.2910   -1.2060  -21.4580 N   0  0  0  0  0  0  0  0  0  0  0  0
   -9.2010    0.8770  -24.6010 N   0  0  0  0  0  0  0  0  0  0  0  0
   -8.3740    1.9130  -25.3080 C   0  0  0  0  0  0  0  0  0  0  0  0
   -6.7920    3.8090  -22.3620 C   0  0  0  0  0  0  0  0  0  0  0  0
   -5.0450    5.7460  -22.3220 C   0  0  0  0  0  0  0  0  0  0  0  0
   -6.3280    6.3160  -21.7590 C   0  0  0  0  0  0  0  0  0  0  0  0
   -6.3770    5.2200  -22.8010 C   0  0  0  0  0  0  0  0  0  0  0  0
   -8.1910   -3.4900  -24.3170 C   0  0  0  0  0  0  0  0  0  0  0  0
   -7.0570   -2.4680  -22.1510 C   0  0  0  0  0  0  0  0  0  0  0  0
   -8.5660   -0.4560  -24.4300 C   0  0  0  0  0  0  0  0  0  0  0  0
   -8.3440   -2.6680  -22.9990 C   0  0  0  0  0  0  0  0  0  0  0  0
   -9.0160   -1.2230  -23.1340 C   0  0  0  0  0  0  0  0  0  0  0  0
  -13.4700   -3.0730  -21.7370 F   0  0  0  0  0  0  0  0  0  0  0  0
   -6.8050    5.5440  -24.0630 F   0  0  0  0  0  0  0  0  0  0  0  0
   -7.7800   -1.5990  -18.8640 H   0  0  0  0  0  0  0  0  0  0  0  0
  -14.4880   -0.9180  -22.7570 H   0  0  0  0  0  0  0  0  0  0  0  0
  -13.2070    0.9300  -23.7610 H   0  0  0  0  0  0  0  0  0  0  0  0
  -10.8920   -3.0610  -21.9570 H   0  0  0  0  0  0  0  0  0  0  0  0
   -2.0530    2.0360  -21.1070 H   0  0  0  0  0  0  0  0  0  0  0  0
   -3.3320    1.2220  -23.0810 H   0  0  0  0  0  0  0  0  0  0  0  0
   -4.5550    0.4820  -17.3050 H   0  0  0  0  0  0  0  0  0  0  0  0
   -2.8610    1.5460  -18.8090 H   0  0  0  0  0  0  0  0  0  0  0  0
   -5.3950   -0.0730  -22.7660 H   0  0  0  0  0  0  0  0  0  0  0  0
   -8.6810    3.2150  -23.1800 H   0  0  0  0  0  0  0  0  0  0  0  0
   -8.9780    2.7890  -25.5870 H   0  0  0  0  0  0  0  0  0  0  0  0
   -7.9380    1.5140  -26.2330 H   0  0  0  0  0  0  0  0  0  0  0  0
   -7.3330    3.9070  -21.4200 H   0  0  0  0  0  0  0  0  0  0  0  0
   -5.9070    3.1870  -22.1630 H   0  0  0  0  0  0  0  0  0  0  0  0
   -4.4450    5.0600  -21.7250 H   0  0  0  0  0  0  0  0  0  0  0  0
   -4.4830    6.3750  -23.0070 H   0  0  0  0  0  0  0  0  0  0  0  0
   -6.6710    6.0380  -20.7660 H   0  0  0  0  0  0  0  0  0  0  0  0
   -6.5690    7.3330  -22.0530 H   0  0  0  0  0  0  0  0  0  0  0  0
   -9.1820   -3.7000  -24.7490 H   0  0  0  0  0  0  0  0  0  0  0  0
   -7.5950   -2.9430  -25.0580 H   0  0  0  0  0  0  0  0  0  0  0  0
   -7.7020   -4.4610  -24.1400 H   0  0  0  0  0  0  0  0  0  0  0  0
   -6.1610   -2.3810  -22.7830 H   0  0  0  0  0  0  0  0  0  0  0  0
   -6.9110   -3.2600  -21.3950 H   0  0  0  0  0  0  0  0  0  0  0  0
   -7.4790   -0.3090  -24.4010 H   0  0  0  0  0  0  0  0  0  0  0  0
   -8.8020   -1.0590  -25.3150 H   0  0  0  0  0  0  0  0  0  0  0  0
   -8.9350   -3.2870  -22.3320 H   0  0  0  0  0  0  0  0  0  0  0  0
  5  1  2  0
  6  2  2  0
  7  3  2  0
  8  4  2  0
 10  9  1  0
 13 12  1  0
 14  9  2  0
 14 11  1  0
 15  5  1  0
 15 10  2  0
 16 11  2  0
 16 15  1  0
 17  4  1  0
 18 12  2  0
 19 13  2  0
 20  8  1  0
 21 17  2  0
 21 18  1  0
 22 19  1  0
 22 20  2  0
 22 21  1  0
 23  6  1  0
 24  7  1  0
 24 20  1  0
 25  5  1  0
 26  6  1  0
 26 25  1  0
 27 23  1  0
 29 28  1  0
 30 27  1  0
 30 28  1  0
 30 29  1  0
 32 24  1  0
 33 25  1  0
 34 31  1  0
 34 32  1  0
 35  7  1  0
 35 16  1  0
 35 33  1  0
 35 34  1  0
 36 14  1  0
 37 30  1  0
  8 38  1  0
  9 39  1  0
 10 40  1  0
 11 41  1  0
 12 42  1  0
 13 43  1  0
 17 44  1  0
 18 45  1  0
 19 46  1  0
 23 47  1  0
 26 48  1  0
 26 49  1  0
 27 50  1  0
 27 51  1  0
 28 52  1  0
 28 53  1  0
 29 54  1  0
 29 55  1  0
 31 56  1  0
 31 57  1  0
 31 58  1  0
 32 59  1  0
 32 60  1  0
 33 61  1  0
 33 62  1  0
 34 63  1  0
M  END
>  <Favorite_cresset>
false

>  <Protein_cresset>
sars_P

>  <MW_cresset>
504.5

>  <#Atoms_cresset>
37

>  <SlogP_cresset>
3.6

>  <TPSA_cresset>
82.6

>  <Flexibility_cresset>
4.9

>  <HBA_cresset>
7

>  <HBD_cresset>
1

>  <Rof5_cresset>
1

>  <Confs_cresset>
0

>  <Poses_cresset>
0

$$$$
predicted (85)
  xed2sdf           3D
 
 57 62  0  0  1  0  0  0  0  0999 V2000
  -13.5160   -3.0260  -21.8810 Cl  0  0  0  0  0  0  0  0  0  0  0  0
  -11.0530    2.8220  -24.0660 O   0  0  0  0  0  0  0  0  0  0  0  0
   -6.0890    2.8640  -23.9860 O   0  0  0  0  0  0  0  0  0  0  0  0
   -8.6160    1.0570  -21.4950 O   0  0  0  0  0  0  0  0  0  0  0  0
   -6.2490   -0.4460  -17.8780 N   0  0  0  0  0  0  0  0  0  0  0  0
  -10.4620    1.7530  -24.0060 C   0  0  0  0  0  0  0  0  0  0  0  0
   -7.2490    3.2160  -23.8800 C   0  0  0  0  0  0  0  0  0  0  0  0
   -8.3590   -0.0530  -21.9120 C   0  0  0  0  0  0  0  0  0  0  0  0
   -6.9710   -0.8460  -18.9360 C   0  0  0  0  0  0  0  0  0  0  0  0
  -13.2760   -0.6140  -23.0230 C   0  0  0  0  0  0  0  0  0  0  0  0
  -12.5690    0.4990  -23.4780 C   0  0  0  0  0  0  0  0  0  0  0  0
  -11.1660   -1.7570  -22.5900 C   0  0  0  0  0  0  0  0  0  0  0  0
   -3.0600    1.7000  -20.7890 C   0  0  0  0  0  0  0  0  0  0  0  0
   -3.7910    1.2880  -21.9150 C   0  0  0  0  0  0  0  0  0  0  0  0
  -12.5780   -1.7270  -22.5600 C   0  0  0  0  0  0  0  0  0  0  0  0
  -11.1610    0.4950  -23.5350 C   0  0  0  0  0  0  0  0  0  0  0  0
  -10.4370   -0.6620  -23.1340 C   0  0  0  0  0  0  0  0  0  0  0  0
   -5.1360    0.2680  -18.0780 C   0  0  0  0  0  0  0  0  0  0  0  0
   -3.5100    1.3630  -19.5080 C   0  0  0  0  0  0  0  0  0  0  0  0
   -4.9740    0.5400  -21.7610 C   0  0  0  0  0  0  0  0  0  0  0  0
   -6.6190   -0.5360  -20.2480 C   0  0  0  0  0  0  0  0  0  0  0  0
   -4.6800    0.6080  -19.3540 C   0  0  0  0  0  0  0  0  0  0  0  0
   -5.4300    0.1980  -20.4740 C   0  0  0  0  0  0  0  0  0  0  0  0
   -7.6980    4.0350  -22.8550 N   0  0  0  0  0  0  0  0  0  0  0  0
   -7.5010   -0.9190  -21.2850 N   0  0  0  0  0  0  0  0  0  0  0  0
   -9.1220    1.6280  -24.3580 N   0  0  0  0  0  0  0  0  0  0  0  0
   -6.8280    4.7410  -21.9020 C   0  0  0  0  0  0  0  0  0  0  0  0
   -8.3270    2.7690  -24.8840 C   0  0  0  0  0  0  0  0  0  0  0  0
   -7.3210   -2.1640  -22.0080 C   0  0  0  0  0  0  0  0  0  0  0  0
   -8.7480   -3.1080  -24.1610 C   0  0  0  0  0  0  0  0  0  0  0  0
   -7.3930   -2.5500  -24.5210 C   0  0  0  0  0  0  0  0  0  0  0  0
   -8.4290    0.3220  -24.3560 C   0  0  0  0  0  0  0  0  0  0  0  0
   -8.1330   -2.0030  -23.3060 C   0  0  0  0  0  0  0  0  0  0  0  0
   -8.8830   -0.6300  -23.2170 C   0  0  0  0  0  0  0  0  0  0  0  0
   -7.8750   -1.4140  -18.7250 H   0  0  0  0  0  0  0  0  0  0  0  0
  -14.3610   -0.5850  -22.9680 H   0  0  0  0  0  0  0  0  0  0  0  0
  -13.1310    1.3710  -23.7940 H   0  0  0  0  0  0  0  0  0  0  0  0
  -10.6490   -2.6130  -22.1670 H   0  0  0  0  0  0  0  0  0  0  0  0
   -2.1510    2.2860  -20.9030 H   0  0  0  0  0  0  0  0  0  0  0  0
   -3.4460    1.5540  -22.9110 H   0  0  0  0  0  0  0  0  0  0  0  0
   -4.6220    0.5960  -17.1820 H   0  0  0  0  0  0  0  0  0  0  0  0
   -2.9590    1.6990  -18.6380 H   0  0  0  0  0  0  0  0  0  0  0  0
   -5.5290    0.2300  -22.6390 H   0  0  0  0  0  0  0  0  0  0  0  0
   -8.7000    4.1280  -22.7550 H   0  0  0  0  0  0  0  0  0  0  0  0
   -5.7740    4.5720  -22.1480 H   0  0  0  0  0  0  0  0  0  0  0  0
   -7.0170    4.3750  -20.8970 H   0  0  0  0  0  0  0  0  0  0  0  0
   -7.0420    5.8160  -21.9100 H   0  0  0  0  0  0  0  0  0  0  0  0
   -7.8390    2.4620  -25.8180 H   0  0  0  0  0  0  0  0  0  0  0  0
   -8.9630    3.6350  -25.1060 H   0  0  0  0  0  0  0  0  0  0  0  0
   -6.2430   -2.2710  -22.1920 H   0  0  0  0  0  0  0  0  0  0  0  0
   -7.6460   -3.0240  -21.4130 H   0  0  0  0  0  0  0  0  0  0  0  0
   -8.8240   -4.1010  -23.7310 H   0  0  0  0  0  0  0  0  0  0  0  0
   -9.5880   -2.8570  -24.8100 H   0  0  0  0  0  0  0  0  0  0  0  0
   -6.5480   -3.2220  -24.3770 H   0  0  0  0  0  0  0  0  0  0  0  0
   -7.2640   -1.9100  -25.3850 H   0  0  0  0  0  0  0  0  0  0  0  0
   -7.3450    0.4880  -24.2740 H   0  0  0  0  0  0  0  0  0  0  0  0
   -8.6220   -0.1540  -25.3210 H   0  0  0  0  0  0  0  0  0  0  0  0
  6  2  2  0
  7  3  2  0
  8  4  2  0
  9  5  2  0
 11 10  1  0
 14 13  1  0
 15  1  1  0
 15 10  2  0
 15 12  1  0
 16  6  1  0
 16 11  2  0
 17 12  2  0
 17 16  1  0
 18  5  1  0
 19 13  2  0
 20 14  2  0
 21  9  1  0
 22 18  2  0
 22 19  1  0
 23 20  1  0
 23 21  2  0
 23 22  1  0
 24  7  1  0
 25  8  1  0
 25 21  1  0
 26  6  1  0
 27 24  1  0
 28  7  1  0
 28 26  1  0
 29 25  1  0
 31 30  1  0
 32 26  1  0
 33 29  1  0
 33 30  1  0
 33 31  1  0
 34  8  1  0
 34 17  1  0
 34 32  1  0
 34 33  1  0
  9 35  1  0
 10 36  1  0
 11 37  1  0
 12 38  1  0
 13 39  1  0
 14 40  1  0
 18 41  1  0
 19 42  1  0
 20 43  1  0
 24 44  1  0
 27 45  1  0
 27 46  1  0
 27 47  1  0
 28 48  1  0
 28 49  1  0
 29 50  1  0
 29 51  1  0
 30 52  1  0
 30 53  1  0
 31 54  1  0
 31 55  1  0
 32 56  1  0
 32 57  1  0
M  END
>  <Favorite_cresset>
false

>  <Protein_cresset>
sars_P

>  <MW_cresset>
474.9

>  <#Atoms_cresset>
34

>  <SlogP_cresset>
3.2

>  <TPSA_cresset>
82.6

>  <Flexibility_cresset>
2.9

>  <HBA_cresset>
7

>  <HBD_cresset>
1

>  <Rof5_cresset>
0

>  <Confs_cresset>
0

>  <Poses_cresset>
0

$$$$
predicted (86)
  xed2sdf           3D
 
 43 45  0  0  1  0  0  0  0  0999 V2000
   -7.8870    0.3530  -20.9990 O   0  0  0  0  0  0  0  0  0  0  0  0
   -5.8770   -0.6500  -17.7940 N   0  0  0  0  0  0  0  0  0  0  0  0
   -7.8950   -0.7010  -21.6130 C   0  0  0  0  0  0  0  0  0  0  0  0
   -6.4800   -1.3470  -18.7760 C   0  0  0  0  0  0  0  0  0  0  0  0
   -2.7070    1.1320  -20.9730 C   0  0  0  0  0  0  0  0  0  0  0  0
   -3.4120    0.5330  -22.0310 C   0  0  0  0  0  0  0  0  0  0  0  0
   -4.8070    0.0950  -18.0990 C   0  0  0  0  0  0  0  0  0  0  0  0
   -3.1750    1.0070  -19.6560 C   0  0  0  0  0  0  0  0  0  0  0  0
   -4.5340   -0.2730  -21.7760 C   0  0  0  0  0  0  0  0  0  0  0  0
   -6.0480   -1.3070  -20.1090 C   0  0  0  0  0  0  0  0  0  0  0  0
   -4.2890    0.1960  -19.3980 C   0  0  0  0  0  0  0  0  0  0  0  0
   -4.9410   -0.4950  -20.4420 C   0  0  0  0  0  0  0  0  0  0  0  0
   -8.7350   -0.9030  -22.7100 N   0  0  0  0  0  0  0  0  0  0  0  0
   -6.9920   -1.8660  -21.1560 C   0  0  0  0  0  0  0  0  0  0  0  0
   -8.9330   -2.2090  -23.3540 C   0  0  0  0  0  0  0  0  0  0  0  0
   -9.0920    0.9220  -24.4140 C   0  0  0  0  0  0  0  0  0  0  0  0
  -12.7990   -2.1840  -22.9270 C   0  0  0  0  0  0  0  0  0  0  0  0
  -10.3340   -2.7480  -23.0650 C   0  0  0  0  0  0  0  0  0  0  0  0
  -11.1360   -0.2830  -23.3610 C   0  0  0  0  0  0  0  0  0  0  0  0
   -9.6510    0.1740  -23.1780 C   0  0  0  0  0  0  0  0  0  0  0  0
  -11.4390   -1.8070  -23.5870 C   0  0  0  0  0  0  0  0  0  0  0  0
   -7.3950   -1.8820  -18.5110 H   0  0  0  0  0  0  0  0  0  0  0  0
   -1.8260    1.7340  -21.1750 H   0  0  0  0  0  0  0  0  0  0  0  0
   -3.0940    0.7090  -23.0550 H   0  0  0  0  0  0  0  0  0  0  0  0
   -4.4140    0.7070  -17.2970 H   0  0  0  0  0  0  0  0  0  0  0  0
   -2.6820    1.5360  -18.8430 H   0  0  0  0  0  0  0  0  0  0  0  0
   -5.0830   -0.7010  -22.6130 H   0  0  0  0  0  0  0  0  0  0  0  0
   -7.6170   -2.6560  -20.7250 H   0  0  0  0  0  0  0  0  0  0  0  0
   -6.4460   -2.3280  -21.9860 H   0  0  0  0  0  0  0  0  0  0  0  0
   -8.2210   -2.9510  -22.9860 H   0  0  0  0  0  0  0  0  0  0  0  0
   -8.7800   -2.0860  -24.4320 H   0  0  0  0  0  0  0  0  0  0  0  0
   -7.9940    0.9070  -24.4190 H   0  0  0  0  0  0  0  0  0  0  0  0
   -9.4640    0.4870  -25.3500 H   0  0  0  0  0  0  0  0  0  0  0  0
   -9.3870    1.9800  -24.3860 H   0  0  0  0  0  0  0  0  0  0  0  0
  -13.6330   -1.6050  -23.3520 H   0  0  0  0  0  0  0  0  0  0  0  0
  -12.7700   -1.9880  -21.8590 H   0  0  0  0  0  0  0  0  0  0  0  0
  -13.0220   -3.2570  -22.9920 H   0  0  0  0  0  0  0  0  0  0  0  0
  -10.4550   -2.8990  -21.9860 H   0  0  0  0  0  0  0  0  0  0  0  0
  -10.4340   -3.7360  -23.5270 H   0  0  0  0  0  0  0  0  0  0  0  0
  -11.6080    0.3120  -24.1490 H   0  0  0  0  0  0  0  0  0  0  0  0
  -11.6610    0.0450  -22.4680 H   0  0  0  0  0  0  0  0  0  0  0  0
   -9.6990    0.9400  -22.3930 H   0  0  0  0  0  0  0  0  0  0  0  0
  -11.5230   -1.9830  -24.6670 H   0  0  0  0  0  0  0  0  0  0  0  0
  3  1  2  0
  4  2  2  0
  6  5  1  0
  7  2  1  0
  8  5  2  0
  9  6  2  0
 10  4  1  0
 11  7  2  0
 11  8  1  0
 12  9  1  0
 12 10  2  0
 12 11  1  0
 13  3  1  0
 14  3  1  0
 14 10  1  0
 15 13  1  0
 18 15  1  0
 20 13  1  0
 20 16  1  0
 20 19  1  0
 21 17  1  0
 21 18  1  0
 21 19  1  0
  4 22  1  0
  5 23  1  0
  6 24  1  0
  7 25  1  0
  8 26  1  0
  9 27  1  0
 14 28  1  0
 14 29  1  0
 15 30  1  0
 15 31  1  0
 16 32  1  0
 16 33  1  0
 16 34  1  0
 17 35  1  0
 17 36  1  0
 17 37  1  0
 18 38  1  0
 18 39  1  0
 19 40  1  0
 19 41  1  0
 20 42  1  0
 21 43  1  0
M  END
>  <Favorite_cresset>
false

>  <Protein_cresset>
sars_P

>  <MW_cresset>
282.4

>  <#Atoms_cresset>
21

>  <SlogP_cresset>
3.4

>  <TPSA_cresset>
33.2

>  <Flexibility_cresset>
3.2

>  <HBA_cresset>
3

>  <HBD_cresset>
0

>  <Rof5_cresset>
0

>  <Confs_cresset>
0

>  <Poses_cresset>
0

$$$$
predicted (87)
  xed2sdf           3D
 
 59 64  0  0  1  0  0  0  0  0999 V2000
  -10.7860    2.4140  -24.3730 O   0  0  0  0  0  0  0  0  0  0  0  0
   -8.6620    0.6060  -21.4360 O   0  0  0  0  0  0  0  0  0  0  0  0
   -6.1340   -0.5130  -18.0150 N   0  0  0  0  0  0  0  0  0  0  0  0
   -5.3420    3.7190  -23.2630 N   0  0  0  0  0  0  0  0  0  0  0  0
  -10.2660    1.3170  -24.2230 C   0  0  0  0  0  0  0  0  0  0  0  0
   -8.2590   -0.4230  -21.9510 C   0  0  0  0  0  0  0  0  0  0  0  0
   -6.3350    3.7420  -22.3840 C   0  0  0  0  0  0  0  0  0  0  0  0
   -6.8250   -0.9540  -19.0790 C   0  0  0  0  0  0  0  0  0  0  0  0
  -13.2160   -0.7730  -23.0190 C   0  0  0  0  0  0  0  0  0  0  0  0
  -12.4430    0.2670  -23.5450 C   0  0  0  0  0  0  0  0  0  0  0  0
  -11.1910   -2.0280  -22.5730 C   0  0  0  0  0  0  0  0  0  0  0  0
   -2.7630    1.2860  -21.0010 C   0  0  0  0  0  0  0  0  0  0  0  0
   -3.4750    0.8110  -22.1130 C   0  0  0  0  0  0  0  0  0  0  0  0
   -7.5040    3.1780  -22.9580 C   0  0  0  0  0  0  0  0  0  0  0  0
  -12.5860   -1.9190  -22.5380 C   0  0  0  0  0  0  0  0  0  0  0  0
  -11.0390    0.1590  -23.6340 C   0  0  0  0  0  0  0  0  0  0  0  0
  -10.3900   -1.0050  -23.1490 C   0  0  0  0  0  0  0  0  0  0  0  0
   -4.9790    0.1430  -18.2300 C   0  0  0  0  0  0  0  0  0  0  0  0
   -3.2580    1.0790  -19.7030 C   0  0  0  0  0  0  0  0  0  0  0  0
   -4.6830    0.1320  -21.9310 C   0  0  0  0  0  0  0  0  0  0  0  0
   -6.3870   -0.7590  -20.3990 C   0  0  0  0  0  0  0  0  0  0  0  0
   -7.1960    2.7930  -24.2220 C   0  0  0  0  0  0  0  0  0  0  0  0
   -4.4560    0.3760  -19.5160 C   0  0  0  0  0  0  0  0  0  0  0  0
   -5.1720   -0.0930  -20.6280 C   0  0  0  0  0  0  0  0  0  0  0  0
   -7.2010   -1.1520  -21.4730 N   0  0  0  0  0  0  0  0  0  0  0  0
   -8.9440    1.0780  -24.5850 N   0  0  0  0  0  0  0  0  0  0  0  0
   -5.8740    3.1330  -24.3900 N   0  0  0  0  0  0  0  0  0  0  0  0
   -8.1190    2.1370  -25.2150 C   0  0  0  0  0  0  0  0  0  0  0  0
   -5.0830    2.9450  -25.6100 C   0  0  0  0  0  0  0  0  0  0  0  0
   -8.0770   -3.3370  -24.4160 C   0  0  0  0  0  0  0  0  0  0  0  0
   -6.9950   -2.4030  -22.1840 C   0  0  0  0  0  0  0  0  0  0  0  0
   -8.2990   -0.2500  -24.4350 C   0  0  0  0  0  0  0  0  0  0  0  0
   -8.2340   -2.5320  -23.0880 C   0  0  0  0  0  0  0  0  0  0  0  0
   -8.8440   -1.0720  -23.2010 C   0  0  0  0  0  0  0  0  0  0  0  0
  -13.3220   -2.9060  -21.9900 F   0  0  0  0  0  0  0  0  0  0  0  0
   -6.1700    4.1530  -21.3950 H   0  0  0  0  0  0  0  0  0  0  0  0
   -7.7660   -1.4640  -18.8680 H   0  0  0  0  0  0  0  0  0  0  0  0
  -14.2930   -0.6700  -22.9360 H   0  0  0  0  0  0  0  0  0  0  0  0
  -12.9370    1.1730  -23.8790 H   0  0  0  0  0  0  0  0  0  0  0  0
  -10.7760   -2.9180  -22.1200 H   0  0  0  0  0  0  0  0  0  0  0  0
   -1.8290    1.8210  -21.1420 H   0  0  0  0  0  0  0  0  0  0  0  0
   -3.0990    0.9750  -23.1190 H   0  0  0  0  0  0  0  0  0  0  0  0
   -8.4680    3.0640  -22.4860 H   0  0  0  0  0  0  0  0  0  0  0  0
   -4.4720    0.5080  -17.3450 H   0  0  0  0  0  0  0  0  0  0  0  0
   -2.7180    1.4680  -18.8490 H   0  0  0  0  0  0  0  0  0  0  0  0
   -5.2340   -0.2140  -22.8000 H   0  0  0  0  0  0  0  0  0  0  0  0
   -8.7510    2.9110  -25.6760 H   0  0  0  0  0  0  0  0  0  0  0  0
   -7.5210    1.6950  -26.0220 H   0  0  0  0  0  0  0  0  0  0  0  0
   -4.0070    2.9900  -25.4030 H   0  0  0  0  0  0  0  0  0  0  0  0
   -5.3540    3.7240  -26.3300 H   0  0  0  0  0  0  0  0  0  0  0  0
   -5.3210    1.9680  -26.0420 H   0  0  0  0  0  0  0  0  0  0  0  0
   -7.0340   -3.4630  -24.7220 H   0  0  0  0  0  0  0  0  0  0  0  0
   -8.6150   -2.8890  -25.2570 H   0  0  0  0  0  0  0  0  0  0  0  0
   -8.5060   -4.3380  -24.3020 H   0  0  0  0  0  0  0  0  0  0  0  0
   -6.0540   -2.3720  -22.7370 H   0  0  0  0  0  0  0  0  0  0  0  0
   -6.9390   -3.2310  -21.4700 H   0  0  0  0  0  0  0  0  0  0  0  0
   -7.2130   -0.1020  -24.3520 H   0  0  0  0  0  0  0  0  0  0  0  0
   -8.4600   -0.7900  -25.3730 H   0  0  0  0  0  0  0  0  0  0  0  0
   -8.8500   -3.1570  -22.4350 H   0  0  0  0  0  0  0  0  0  0  0  0
  5  1  2  0
  6  2  2  0
  7  4  2  0
  8  3  2  0
 10  9  1  0
 13 12  1  0
 14  7  1  0
 15  9  2  0
 15 11  1  0
 16  5  1  0
 16 10  2  0
 17 11  2  0
 17 16  1  0
 18  3  1  0
 19 12  2  0
 20 13  2  0
 21  8  1  0
 22 14  2  0
 23 18  2  0
 23 19  1  0
 24 20  1  0
 24 21  2  0
 24 23  1  0
 25  6  1  0
 25 21  1  0
 26  5  1  0
 27  4  1  0
 27 22  1  0
 28 22  1  0
 28 26  1  0
 29 27  1  0
 31 25  1  0
 32 26  1  0
 33 30  1  0
 33 31  1  0
 34  6  1  0
 34 17  1  0
 34 32  1  0
 34 33  1  0
 35 15  1  0
  7 36  1  0
  8 37  1  0
  9 38  1  0
 10 39  1  0
 11 40  1  0
 12 41  1  0
 13 42  1  0
 14 43  1  0
 18 44  1  0
 19 45  1  0
 20 46  1  0
 28 47  1  0
 28 48  1  0
 29 49  1  0
 29 50  1  0
 29 51  1  0
 30 52  1  0
 30 53  1  0
 30 54  1  0
 31 55  1  0
 31 56  1  0
 32 57  1  0
 32 58  1  0
 33 59  1  0
M  END
>  <Favorite_cresset>
false

>  <Protein_cresset>
sars_P

>  <MW_cresset>
469.5

>  <#Atoms_cresset>
35

>  <SlogP_cresset>
4.0

>  <TPSA_cresset>
71.3

>  <Flexibility_cresset>
2.9

>  <HBA_cresset>
7

>  <HBD_cresset>
0

>  <Rof5_cresset>
0

>  <Confs_cresset>
0

>  <Poses_cresset>
0

$$$$
predicted (88)
  xed2sdf           3D
 
 40 42  0  0  0  0  0  0  0  0999 V2000
   -8.1730    0.5370  -21.2270 O   0  0  0  0  0  0  0  0  0  0  0  0
   -6.0180   -0.4920  -17.7610 N   0  0  0  0  0  0  0  0  0  0  0  0
   -8.0340   -0.5590  -21.7520 C   0  0  0  0  0  0  0  0  0  0  0  0
   -6.6580   -1.1080  -18.7640 C   0  0  0  0  0  0  0  0  0  0  0  0
   -2.8460    1.3690  -20.8820 C   0  0  0  0  0  0  0  0  0  0  0  0
   -3.5530    0.7990  -21.9580 C   0  0  0  0  0  0  0  0  0  0  0  0
   -4.9350    0.2410  -18.0380 C   0  0  0  0  0  0  0  0  0  0  0  0
   -3.2970    1.1790  -19.5690 C   0  0  0  0  0  0  0  0  0  0  0  0
   -4.6850    0.0070  -21.7220 C   0  0  0  0  0  0  0  0  0  0  0  0
   -6.2510   -0.9950  -20.0950 C   0  0  0  0  0  0  0  0  0  0  0  0
   -4.4340    0.3960  -19.3330 C   0  0  0  0  0  0  0  0  0  0  0  0
   -5.1190   -0.2140  -20.4010 C   0  0  0  0  0  0  0  0  0  0  0  0
   -8.6740   -0.8850  -22.9380 N   0  0  0  0  0  0  0  0  0  0  0  0
   -7.1140   -1.6250  -21.1550 C   0  0  0  0  0  0  0  0  0  0  0  0
  -12.9270   -1.6940  -23.1990 C   0  0  0  0  0  0  0  0  0  0  0  0
   -8.9840   -2.2660  -23.3630 C   0  0  0  0  0  0  0  0  0  0  0  0
   -9.4520    0.1230  -23.6750 C   0  0  0  0  0  0  0  0  0  0  0  0
  -10.4670   -2.5940  -23.0660 C   0  0  0  0  0  0  0  0  0  0  0  0
  -10.9510   -0.0550  -23.4320 C   0  0  0  0  0  0  0  0  0  0  0  0
  -11.4440   -1.5210  -23.6700 C   0  0  0  0  0  0  0  0  0  0  0  0
  -13.1800   -2.9680  -22.8380 F   0  0  0  0  0  0  0  0  0  0  0  0
  -13.2270   -0.9350  -22.1490 F   0  0  0  0  0  0  0  0  0  0  0  0
   -7.5460   -1.6860  -18.5000 H   0  0  0  0  0  0  0  0  0  0  0  0
   -1.9710    1.9810  -21.0710 H   0  0  0  0  0  0  0  0  0  0  0  0
   -3.2340    0.9870  -22.9770 H   0  0  0  0  0  0  0  0  0  0  0  0
   -4.5000    0.7650  -17.1970 H   0  0  0  0  0  0  0  0  0  0  0  0
   -2.7790    1.6510  -18.7380 H   0  0  0  0  0  0  0  0  0  0  0  0
   -5.2220   -0.4080  -22.5730 H   0  0  0  0  0  0  0  0  0  0  0  0
   -7.7350   -2.4160  -20.7250 H   0  0  0  0  0  0  0  0  0  0  0  0
   -6.5010   -2.1070  -21.9260 H   0  0  0  0  0  0  0  0  0  0  0  0
  -13.6030   -1.3990  -24.0070 H   0  0  0  0  0  0  0  0  0  0  0  0
   -8.3200   -3.0070  -22.8970 H   0  0  0  0  0  0  0  0  0  0  0  0
   -8.8330   -2.3240  -24.4470 H   0  0  0  0  0  0  0  0  0  0  0  0
   -9.2410    0.0260  -24.7440 H   0  0  0  0  0  0  0  0  0  0  0  0
   -9.1740    1.1290  -23.3350 H   0  0  0  0  0  0  0  0  0  0  0  0
  -10.7010   -3.5770  -23.4910 H   0  0  0  0  0  0  0  0  0  0  0  0
  -10.6140   -2.7060  -21.9850 H   0  0  0  0  0  0  0  0  0  0  0  0
  -11.5210    0.6820  -24.0170 H   0  0  0  0  0  0  0  0  0  0  0  0
  -11.1040    0.1980  -22.3860 H   0  0  0  0  0  0  0  0  0  0  0  0
  -11.4370   -1.7180  -24.7500 H   0  0  0  0  0  0  0  0  0  0  0  0
  3  1  2  0
  4  2  2  0
  6  5  1  0
  7  2  1  0
  8  5  2  0
  9  6  2  0
 10  4  1  0
 11  7  2  0
 11  8  1  0
 12  9  1  0
 12 10  2  0
 12 11  1  0
 13  3  1  0
 14  3  1  0
 14 10  1  0
 16 13  1  0
 17 13  1  0
 18 16  1  0
 19 17  1  0
 20 15  1  0
 20 18  1  0
 20 19  1  0
 21 15  1  0
 22 15  1  0
  4 23  1  0
  5 24  1  0
  6 25  1  0
  7 26  1  0
  8 27  1  0
  9 28  1  0
 14 29  1  0
 14 30  1  0
 15 31  1  0
 16 32  1  0
 16 33  1  0
 17 34  1  0
 17 35  1  0
 18 36  1  0
 18 37  1  0
 19 38  1  0
 19 39  1  0
 20 40  1  0
M  END
>  <Favorite_cresset>
false

>  <Protein_cresset>
sars_P

>  <MW_cresset>
304.3

>  <#Atoms_cresset>
22

>  <SlogP_cresset>
3.3

>  <TPSA_cresset>
33.2

>  <Flexibility_cresset>
4.2

>  <HBA_cresset>
3

>  <HBD_cresset>
0

>  <Rof5_cresset>
0

>  <Confs_cresset>
0

>  <Poses_cresset>
0

$$$$
predicted (89)
  xed2sdf           3D
 
 43 45  0  0  0  0  0  0  0  0999 V2000
   -8.0330    0.6760  -21.2620 O   0  0  0  0  0  0  0  0  0  0  0  0
   -6.0050   -0.6210  -17.8280 N   0  0  0  0  0  0  0  0  0  0  0  0
   -8.0580   -0.4240  -21.7970 C   0  0  0  0  0  0  0  0  0  0  0  0
   -6.6540   -1.1970  -18.8540 C   0  0  0  0  0  0  0  0  0  0  0  0
   -2.8620    1.4000  -20.8730 C   0  0  0  0  0  0  0  0  0  0  0  0
   -3.5720    0.8840  -21.9690 C   0  0  0  0  0  0  0  0  0  0  0  0
   -4.9340    0.1380  -18.0800 C   0  0  0  0  0  0  0  0  0  0  0  0
   -3.3160    1.1560  -19.5720 C   0  0  0  0  0  0  0  0  0  0  0  0
   -4.7070    0.0800  -21.7720 C   0  0  0  0  0  0  0  0  0  0  0  0
   -6.2680   -1.0210  -20.1880 C   0  0  0  0  0  0  0  0  0  0  0  0
   -4.4450    0.3520  -19.3710 C   0  0  0  0  0  0  0  0  0  0  0  0
   -5.1350   -0.2190  -20.4620 C   0  0  0  0  0  0  0  0  0  0  0  0
   -8.9140   -0.7080  -22.8620 N   0  0  0  0  0  0  0  0  0  0  0  0
   -7.1840   -1.5600  -21.2740 C   0  0  0  0  0  0  0  0  0  0  0  0
  -12.9980   -2.2790  -22.8570 C   0  0  0  0  0  0  0  0  0  0  0  0
  -11.9510   -1.2940  -24.9470 C   0  0  0  0  0  0  0  0  0  0  0  0
   -9.9380    0.2590  -23.2530 C   0  0  0  0  0  0  0  0  0  0  0  0
   -9.0970   -2.0210  -23.5430 C   0  0  0  0  0  0  0  0  0  0  0  0
  -11.3240   -0.3280  -22.8580 C   0  0  0  0  0  0  0  0  0  0  0  0
  -10.5120   -2.6390  -23.3180 C   0  0  0  0  0  0  0  0  0  0  0  0
  -11.7110   -1.6520  -23.5110 C   0  0  0  0  0  0  0  0  0  0  0  0
   -7.5390   -1.7820  -18.6000 H   0  0  0  0  0  0  0  0  0  0  0  0
   -1.9840    2.0170  -21.0330 H   0  0  0  0  0  0  0  0  0  0  0  0
   -3.2510    1.1270  -22.9770 H   0  0  0  0  0  0  0  0  0  0  0  0
   -4.4960    0.6370  -17.2230 H   0  0  0  0  0  0  0  0  0  0  0  0
   -2.8020    1.6010  -18.7250 H   0  0  0  0  0  0  0  0  0  0  0  0
   -5.2530   -0.2850  -22.6380 H   0  0  0  0  0  0  0  0  0  0  0  0
   -7.8530   -2.3350  -20.8820 H   0  0  0  0  0  0  0  0  0  0  0  0
   -6.6100   -2.0150  -22.0860 H   0  0  0  0  0  0  0  0  0  0  0  0
  -13.9280   -1.8020  -23.2100 H   0  0  0  0  0  0  0  0  0  0  0  0
  -12.9920   -2.1920  -21.7680 H   0  0  0  0  0  0  0  0  0  0  0  0
  -13.0440   -3.3620  -23.0570 H   0  0  0  0  0  0  0  0  0  0  0  0
  -12.9490   -0.8860  -25.1470 H   0  0  0  0  0  0  0  0  0  0  0  0
  -11.7290   -2.1390  -25.6050 H   0  0  0  0  0  0  0  0  0  0  0  0
  -11.2800   -0.4930  -25.1900 H   0  0  0  0  0  0  0  0  0  0  0  0
   -9.7770    1.2140  -22.7380 H   0  0  0  0  0  0  0  0  0  0  0  0
   -9.8370    0.4610  -24.3250 H   0  0  0  0  0  0  0  0  0  0  0  0
   -8.3410   -2.7400  -23.2140 H   0  0  0  0  0  0  0  0  0  0  0  0
   -8.9570   -1.8630  -24.6170 H   0  0  0  0  0  0  0  0  0  0  0  0
  -12.1320    0.4230  -22.8910 H   0  0  0  0  0  0  0  0  0  0  0  0
  -11.1530   -0.7120  -21.8780 H   0  0  0  0  0  0  0  0  0  0  0  0
  -10.5530   -3.0270  -22.2940 H   0  0  0  0  0  0  0  0  0  0  0  0
  -10.6430   -3.5050  -23.9730 H   0  0  0  0  0  0  0  0  0  0  0  0
  3  1  2  0
  4  2  2  0
  6  5  1  0
  7  2  1  0
  8  5  2  0
  9  6  2  0
 10  4  1  0
 11  7  2  0
 11  8  1  0
 12  9  1  0
 12 10  2  0
 12 11  1  0
 13  3  1  0
 14  3  1  0
 14 10  1  0
 17 13  1  0
 18 13  1  0
 19 17  1  0
 20 18  1  0
 21 15  1  0
 21 16  1  0
 21 19  1  0
 21 20  1  0
  4 22  1  0
  5 23  1  0
  6 24  1  0
  7 25  1  0
  8 26  1  0
  9 27  1  0
 14 28  1  0
 14 29  1  0
 15 30  1  0
 15 31  1  0
 15 32  1  0
 16 33  1  0
 16 34  1  0
 16 35  1  0
 17 36  1  0
 17 37  1  0
 18 38  1  0
 18 39  1  0
 19 40  1  0
 19 41  1  0
 20 42  1  0
 20 43  1  0
M  END
>  <Favorite_cresset>
false

>  <Protein_cresset>
sars_P

>  <MW_cresset>
282.4

>  <#Atoms_cresset>
21

>  <SlogP_cresset>
3.4

>  <TPSA_cresset>
33.2

>  <Flexibility_cresset>
3.2

>  <HBA_cresset>
3

>  <HBD_cresset>
0

>  <Rof5_cresset>
0

>  <Confs_cresset>
0

>  <Poses_cresset>
0

$$$$
predicted (90)
  xed2sdf           3D
 
 64 68  0  0  1  0  0  0  0  0999 V2000
  -10.7630    2.2450  -24.3330 O   0  0  0  0  0  0  0  0  0  0  0  0
   -8.5420    4.2960  -24.6640 O   0  0  0  0  0  0  0  0  0  0  0  0
   -8.7100    0.3920  -21.3210 O   0  0  0  0  0  0  0  0  0  0  0  0
   -8.0250   -5.9750  -23.3190 O   0  0  0  0  0  0  0  0  0  0  0  0
   -5.9540   -4.9030  -24.2090 O   0  0  0  0  0  0  0  0  0  0  0  0
   -6.1140   -0.6690  -17.9600 N   0  0  0  0  0  0  0  0  0  0  0  0
  -10.2510    1.1620  -24.1070 C   0  0  0  0  0  0  0  0  0  0  0  0
   -7.9980    3.3210  -24.1740 C   0  0  0  0  0  0  0  0  0  0  0  0
   -8.3050   -0.6270  -21.8460 C   0  0  0  0  0  0  0  0  0  0  0  0
   -6.7970   -1.1440  -19.0200 C   0  0  0  0  0  0  0  0  0  0  0  0
  -13.3050   -0.8730  -22.9870 C   0  0  0  0  0  0  0  0  0  0  0  0
  -12.4940    0.1520  -23.4860 C   0  0  0  0  0  0  0  0  0  0  0  0
  -11.3200   -2.1910  -22.5180 C   0  0  0  0  0  0  0  0  0  0  0  0
   -2.8420    1.2840  -20.9330 C   0  0  0  0  0  0  0  0  0  0  0  0
   -3.5600    0.8140  -22.0430 C   0  0  0  0  0  0  0  0  0  0  0  0
  -12.7170   -2.0430  -22.5140 C   0  0  0  0  0  0  0  0  0  0  0  0
  -11.0800    0.0150  -23.5360 C   0  0  0  0  0  0  0  0  0  0  0  0
  -10.4740   -1.1760  -23.0440 C   0  0  0  0  0  0  0  0  0  0  0  0
   -4.9870    0.0280  -18.1700 C   0  0  0  0  0  0  0  0  0  0  0  0
   -3.3200    1.0370  -19.6380 C   0  0  0  0  0  0  0  0  0  0  0  0
   -4.7430    0.0860  -21.8680 C   0  0  0  0  0  0  0  0  0  0  0  0
   -6.3820   -0.9370  -20.3420 C   0  0  0  0  0  0  0  0  0  0  0  0
   -4.4890    0.2860  -19.4570 C   0  0  0  0  0  0  0  0  0  0  0  0
   -5.2040   -0.2020  -20.5700 C   0  0  0  0  0  0  0  0  0  0  0  0
   -7.3300    3.3650  -22.9590 N   0  0  0  0  0  0  0  0  0  0  0  0
   -7.2180   -1.3470  -21.4060 N   0  0  0  0  0  0  0  0  0  0  0  0
   -8.8910    0.9120  -24.3450 N   0  0  0  0  0  0  0  0  0  0  0  0
   -7.7040   -5.7010  -25.8270 N   0  0  0  0  0  0  0  0  0  0  0  0
   -7.1190    4.5800  -22.1450 C   0  0  0  0  0  0  0  0  0  0  0  0
   -9.0560   -6.1670  -26.1760 C   0  0  0  0  0  0  0  0  0  0  0  0
   -7.9490    1.9490  -24.9000 C   0  0  0  0  0  0  0  0  0  0  0  0
   -7.0000   -2.5900  -22.1500 C   0  0  0  0  0  0  0  0  0  0  0  0
   -8.3810   -0.4830  -24.3010 C   0  0  0  0  0  0  0  0  0  0  0  0
   -8.1670   -3.4600  -24.3700 C   0  0  0  0  0  0  0  0  0  0  0  0
   -8.3060   -2.7560  -22.9850 C   0  0  0  0  0  0  0  0  0  0  0  0
   -8.9210   -1.2880  -23.0720 C   0  0  0  0  0  0  0  0  0  0  0  0
   -7.3850   -5.1080  -24.2910 S   0  0  0  0  0  0  0  0  0  0  0  0
  -13.5050   -3.0240  -22.0310 F   0  0  0  0  0  0  0  0  0  0  0  0
   -7.7220   -1.6810  -18.8100 H   0  0  0  0  0  0  0  0  0  0  0  0
  -14.3880   -0.7630  -22.9710 H   0  0  0  0  0  0  0  0  0  0  0  0
  -12.9800    1.0580  -23.8420 H   0  0  0  0  0  0  0  0  0  0  0  0
  -10.9330   -3.1050  -22.0890 H   0  0  0  0  0  0  0  0  0  0  0  0
   -1.9280    1.8510  -21.0780 H   0  0  0  0  0  0  0  0  0  0  0  0
   -3.2050    1.0240  -23.0470 H   0  0  0  0  0  0  0  0  0  0  0  0
   -4.4870    0.4070  -17.2830 H   0  0  0  0  0  0  0  0  0  0  0  0
   -2.7830    1.4320  -18.7830 H   0  0  0  0  0  0  0  0  0  0  0  0
   -5.2950   -0.2460  -22.7420 H   0  0  0  0  0  0  0  0  0  0  0  0
   -6.8770    2.5100  -22.6570 H   0  0  0  0  0  0  0  0  0  0  0  0
   -7.0020   -6.3850  -26.1090 H   0  0  0  0  0  0  0  0  0  0  0  0
   -6.0470    4.7540  -22.0000 H   0  0  0  0  0  0  0  0  0  0  0  0
   -7.5710    4.4440  -21.1620 H   0  0  0  0  0  0  0  0  0  0  0  0
   -7.5720    5.4660  -22.6050 H   0  0  0  0  0  0  0  0  0  0  0  0
   -9.8160   -5.4400  -25.8700 H   0  0  0  0  0  0  0  0  0  0  0  0
   -9.1420   -6.3040  -27.2590 H   0  0  0  0  0  0  0  0  0  0  0  0
   -9.2700   -7.1180  -25.6820 H   0  0  0  0  0  0  0  0  0  0  0  0
   -6.9140    1.5890  -24.8330 H   0  0  0  0  0  0  0  0  0  0  0  0
   -8.1740    2.1140  -25.9620 H   0  0  0  0  0  0  0  0  0  0  0  0
   -6.1170   -2.4780  -22.8000 H   0  0  0  0  0  0  0  0  0  0  0  0
   -6.8500   -3.4210  -21.4370 H   0  0  0  0  0  0  0  0  0  0  0  0
   -7.2800   -0.4720  -24.2650 H   0  0  0  0  0  0  0  0  0  0  0  0
   -8.7020   -0.9830  -25.2260 H   0  0  0  0  0  0  0  0  0  0  0  0
   -9.1690   -3.6100  -24.7970 H   0  0  0  0  0  0  0  0  0  0  0  0
   -7.5560   -2.8660  -25.0650 H   0  0  0  0  0  0  0  0  0  0  0  0
   -8.9350   -3.4010  -22.3620 H   0  0  0  0  0  0  0  0  0  0  0  0
  7  1  2  0
  8  2  2  0
  9  3  2  0
 10  6  2  0
 12 11  1  0
 15 14  1  0
 16 11  2  0
 16 13  1  0
 17  7  1  0
 17 12  2  0
 18 13  2  0
 18 17  1  0
 19  6  1  0
 20 14  2  0
 21 15  2  0
 22 10  1  0
 23 19  2  0
 23 20  1  0
 24 21  1  0
 24 22  2  0
 24 23  1  0
 25  8  1  0
 26  9  1  0
 26 22  1  0
 27  7  1  0
 29 25  1  0
 30 28  1  0
 31  8  1  0
 31 27  1  0
 32 26  1  0
 33 27  1  0
 35 32  1  0
 35 34  1  0
 36  9  1  0
 36 18  1  0
 36 33  1  0
 36 35  1  0
 37  4  2  0
 37  5  2  0
 37 28  1  0
 37 34  1  0
 38 16  1  0
 10 39  1  0
 11 40  1  0
 12 41  1  0
 13 42  1  0
 14 43  1  0
 15 44  1  0
 19 45  1  0
 20 46  1  0
 21 47  1  0
 25 48  1  0
 28 49  1  0
 29 50  1  0
 29 51  1  0
 29 52  1  0
 30 53  1  0
 30 54  1  0
 30 55  1  0
 31 56  1  0
 31 57  1  0
 32 58  1  0
 32 59  1  0
 33 60  1  0
 33 61  1  0
 34 62  1  0
 34 63  1  0
 35 64  1  0
M  END
>  <Favorite_cresset>
false

>  <Protein_cresset>
sars_P

>  <MW_cresset>
539.6

>  <#Atoms_cresset>
38

>  <SlogP_cresset>
1.3

>  <TPSA_cresset>
128.8

>  <Flexibility_cresset>
5.4

>  <HBA_cresset>
10

>  <HBD_cresset>
2

>  <Rof5_cresset>
1

>  <Confs_cresset>
0

>  <Poses_cresset>
0

$$$$
predicted (91)
  xed2sdf           3D
 
 66 71  0  0  1  0  0  0  0  0999 V2000
  -13.6600   -2.9290  -21.8540 Cl  0  0  0  0  0  0  0  0  0  0  0  0
  -10.6270    2.4650  -24.4450 O   0  0  0  0  0  0  0  0  0  0  0  0
   -5.5360    2.2190  -24.6020 O   0  0  0  0  0  0  0  0  0  0  0  0
   -8.5170    0.6000  -21.3640 O   0  0  0  0  0  0  0  0  0  0  0  0
   -6.9380   -6.1400  -27.9910 N   0  0  0  0  0  0  0  0  0  0  0  0
   -8.5660   -5.8480  -25.6970 N   0  0  0  0  0  0  0  0  0  0  0  0
   -6.0120   -0.6490  -18.0230 N   0  0  0  0  0  0  0  0  0  0  0  0
  -10.1250    1.3730  -24.2230 C   0  0  0  0  0  0  0  0  0  0  0  0
   -6.6670    2.5000  -24.2430 C   0  0  0  0  0  0  0  0  0  0  0  0
   -8.1310   -0.4030  -21.9290 C   0  0  0  0  0  0  0  0  0  0  0  0
   -8.0580   -6.8740  -27.8160 C   0  0  0  0  0  0  0  0  0  0  0  0
   -8.8590   -6.7390  -26.6660 C   0  0  0  0  0  0  0  0  0  0  0  0
   -6.6510   -5.2340  -27.0230 C   0  0  0  0  0  0  0  0  0  0  0  0
   -6.6450   -1.0920  -19.1270 C   0  0  0  0  0  0  0  0  0  0  0  0
   -7.4690   -5.0650  -25.8700 C   0  0  0  0  0  0  0  0  0  0  0  0
  -13.1940   -0.5950  -23.1460 C   0  0  0  0  0  0  0  0  0  0  0  0
  -12.3700    0.3980  -23.6730 C   0  0  0  0  0  0  0  0  0  0  0  0
  -11.2290   -1.9040  -22.5800 C   0  0  0  0  0  0  0  0  0  0  0  0
   -2.6520    1.4420  -20.8190 C   0  0  0  0  0  0  0  0  0  0  0  0
   -3.3060    0.9800  -21.9690 C   0  0  0  0  0  0  0  0  0  0  0  0
  -12.6220   -1.7390  -22.5930 C   0  0  0  0  0  0  0  0  0  0  0  0
  -10.9640    0.2530  -23.6640 C   0  0  0  0  0  0  0  0  0  0  0  0
  -10.3690   -0.9150  -23.1200 C   0  0  0  0  0  0  0  0  0  0  0  0
   -4.8990    0.0900  -18.1750 C   0  0  0  0  0  0  0  0  0  0  0  0
   -3.1820    1.1660  -19.5500 C   0  0  0  0  0  0  0  0  0  0  0  0
   -4.4860    0.2340  -21.8510 C   0  0  0  0  0  0  0  0  0  0  0  0
   -6.1980   -0.8150  -20.4320 C   0  0  0  0  0  0  0  0  0  0  0  0
   -4.3470    0.3880  -19.4310 C   0  0  0  0  0  0  0  0  0  0  0  0
   -5.0060   -0.0790  -20.5850 C   0  0  0  0  0  0  0  0  0  0  0  0
   -6.9330    3.2090  -23.0810 N   0  0  0  0  0  0  0  0  0  0  0  0
   -7.2520   -4.0340  -24.9260 N   0  0  0  0  0  0  0  0  0  0  0  0
   -7.0170   -1.1400  -21.5510 N   0  0  0  0  0  0  0  0  0  0  0  0
   -8.7750    1.1090  -24.4700 N   0  0  0  0  0  0  0  0  0  0  0  0
   -5.9060    3.6770  -22.1400 C   0  0  0  0  0  0  0  0  0  0  0  0
   -7.9040    2.1570  -25.0910 C   0  0  0  0  0  0  0  0  0  0  0  0
   -8.4420   -3.4380  -24.2460 C   0  0  0  0  0  0  0  0  0  0  0  0
   -6.8430   -2.3480  -22.3800 C   0  0  0  0  0  0  0  0  0  0  0  0
   -8.2310   -0.2780  -24.3630 C   0  0  0  0  0  0  0  0  0  0  0  0
   -8.2420   -2.5210  -23.0010 C   0  0  0  0  0  0  0  0  0  0  0  0
   -8.8120   -1.0530  -23.1360 C   0  0  0  0  0  0  0  0  0  0  0  0
   -8.3140   -7.5810  -28.6040 H   0  0  0  0  0  0  0  0  0  0  0  0
   -9.7670   -7.3300  -26.5330 H   0  0  0  0  0  0  0  0  0  0  0  0
   -5.7770   -4.6020  -27.1920 H   0  0  0  0  0  0  0  0  0  0  0  0
   -7.5570   -1.6610  -18.9530 H   0  0  0  0  0  0  0  0  0  0  0  0
  -14.2720   -0.4780  -23.1630 H   0  0  0  0  0  0  0  0  0  0  0  0
  -12.8360    1.2950  -24.0760 H   0  0  0  0  0  0  0  0  0  0  0  0
  -10.8420   -2.8130  -22.1450 H   0  0  0  0  0  0  0  0  0  0  0  0
   -1.7450    2.0300  -20.9140 H   0  0  0  0  0  0  0  0  0  0  0  0
   -2.9130    1.2150  -22.9540 H   0  0  0  0  0  0  0  0  0  0  0  0
   -4.4530    0.4730  -17.2620 H   0  0  0  0  0  0  0  0  0  0  0  0
   -2.6860    1.5680  -18.6730 H   0  0  0  0  0  0  0  0  0  0  0  0
   -4.9950   -0.0960  -22.7470 H   0  0  0  0  0  0  0  0  0  0  0  0
   -7.9040    3.4250  -22.8750 H   0  0  0  0  0  0  0  0  0  0  0  0
   -6.4350   -3.4460  -25.0780 H   0  0  0  0  0  0  0  0  0  0  0  0
   -4.9320    3.7730  -22.6360 H   0  0  0  0  0  0  0  0  0  0  0  0
   -5.8150    2.9650  -21.3110 H   0  0  0  0  0  0  0  0  0  0  0  0
   -6.2010    4.6570  -21.7450 H   0  0  0  0  0  0  0  0  0  0  0  0
   -7.5860    1.8380  -26.0920 H   0  0  0  0  0  0  0  0  0  0  0  0
   -8.4660    3.0950  -25.2020 H   0  0  0  0  0  0  0  0  0  0  0  0
   -9.0280   -2.8830  -24.9850 H   0  0  0  0  0  0  0  0  0  0  0  0
   -9.0680   -4.2670  -23.8940 H   0  0  0  0  0  0  0  0  0  0  0  0
   -6.0920   -2.1650  -23.1590 H   0  0  0  0  0  0  0  0  0  0  0  0
   -6.5470   -3.2150  -21.7770 H   0  0  0  0  0  0  0  0  0  0  0  0
   -7.1370   -0.2350  -24.2770 H   0  0  0  0  0  0  0  0  0  0  0  0
   -8.4520   -0.8120  -25.2930 H   0  0  0  0  0  0  0  0  0  0  0  0
   -8.7870   -3.0140  -22.1910 H   0  0  0  0  0  0  0  0  0  0  0  0
  8  2  2  0
  9  3  2  0
 10  4  2  0
 11  5  2  0
 12  6  2  0
 12 11  1  0
 13  5  1  0
 14  7  2  0
 15  6  1  0
 15 13  2  0
 17 16  1  0
 20 19  1  0
 21  1  1  0
 21 16  2  0
 21 18  1  0
 22  8  1  0
 22 17  2  0
 23 18  2  0
 23 22  1  0
 24  7  1  0
 25 19  2  0
 26 20  2  0
 27 14  1  0
 28 24  2  0
 28 25  1  0
 29 26  1  0
 29 27  2  0
 29 28  1  0
 30  9  1  0
 31 15  1  0
 32 10  1  0
 32 27  1  0
 33  8  1  0
 34 30  1  0
 35  9  1  0
 35 33  1  0
 36 31  1  0
 37 32  1  0
 38 33  1  0
 39 36  1  0
 39 37  1  0
 40 10  1  0
 40 23  1  0
 40 38  1  0
 40 39  1  0
 11 41  1  0
 12 42  1  0
 13 43  1  0
 14 44  1  0
 16 45  1  0
 17 46  1  0
 18 47  1  0
 19 48  1  0
 20 49  1  0
 24 50  1  0
 25 51  1  0
 26 52  1  0
 30 53  1  0
 31 54  1  0
 34 55  1  0
 34 56  1  0
 34 57  1  0
 35 58  1  0
 35 59  1  0
 36 60  1  0
 36 61  1  0
 37 62  1  0
 37 63  1  0
 38 64  1  0
 38 65  1  0
 39 66  1  0
M  END
>  <Favorite_cresset>
false

>  <Protein_cresset>
sars_P

>  <MW_cresset>
556.0

>  <#Atoms_cresset>
40

>  <SlogP_cresset>
2.9

>  <TPSA_cresset>
120.4

>  <Flexibility_cresset>
5.1

>  <HBA_cresset>
10

>  <HBD_cresset>
2

>  <Rof5_cresset>
1

>  <Confs_cresset>
0

>  <Poses_cresset>
0

$$$$
predicted (92)
  xed2sdf           3D
 
 60 65  0  0  1  0  0  0  0  0999 V2000
  -13.8130   -2.8440  -21.8930 Cl  0  0  0  0  0  0  0  0  0  0  0  0
  -10.6350    2.4780  -24.5410 O   0  0  0  0  0  0  0  0  0  0  0  0
   -8.6780    0.4930  -21.3630 O   0  0  0  0  0  0  0  0  0  0  0  0
   -6.1120   -0.5980  -18.1200 N   0  0  0  0  0  0  0  0  0  0  0  0
   -5.3560    3.6030  -23.2710 N   0  0  0  0  0  0  0  0  0  0  0  0
   -7.4380   -4.1380  -24.8430 O   0  0  0  0  0  0  0  0  0  0  0  0
  -10.1840    1.3690  -24.3180 C   0  0  0  0  0  0  0  0  0  0  0  0
   -8.2790   -0.4750  -21.9790 C   0  0  0  0  0  0  0  0  0  0  0  0
   -5.6900    2.9580  -24.4510 C   0  0  0  0  0  0  0  0  0  0  0  0
   -6.7430   -1.0730  -19.2150 C   0  0  0  0  0  0  0  0  0  0  0  0
  -13.3030   -0.4910  -23.1620 C   0  0  0  0  0  0  0  0  0  0  0  0
  -12.4550    0.4840  -23.6920 C   0  0  0  0  0  0  0  0  0  0  0  0
  -11.3730   -1.8490  -22.6150 C   0  0  0  0  0  0  0  0  0  0  0  0
   -2.7360    1.3930  -20.9650 C   0  0  0  0  0  0  0  0  0  0  0  0
   -3.3970    0.9200  -22.1070 C   0  0  0  0  0  0  0  0  0  0  0  0
  -12.7600   -1.6500  -22.6110 C   0  0  0  0  0  0  0  0  0  0  0  0
  -11.0530    0.2930  -23.7130 C   0  0  0  0  0  0  0  0  0  0  0  0
   -7.0110    2.6810  -24.2900 C   0  0  0  0  0  0  0  0  0  0  0  0
  -10.4960   -0.8970  -23.1860 C   0  0  0  0  0  0  0  0  0  0  0  0
   -4.9890    0.1230  -18.2950 C   0  0  0  0  0  0  0  0  0  0  0  0
   -3.2620    1.1350  -19.6930 C   0  0  0  0  0  0  0  0  0  0  0  0
   -4.5750    0.1750  -21.9720 C   0  0  0  0  0  0  0  0  0  0  0  0
   -6.2960   -0.8560  -20.5340 C   0  0  0  0  0  0  0  0  0  0  0  0
   -7.4380    3.1820  -23.0400 C   0  0  0  0  0  0  0  0  0  0  0  0
   -4.4360    0.3730  -19.5580 C   0  0  0  0  0  0  0  0  0  0  0  0
   -5.1000   -0.1210  -20.7040 C   0  0  0  0  0  0  0  0  0  0  0  0
   -7.1470   -1.1970  -21.6430 N   0  0  0  0  0  0  0  0  0  0  0  0
   -8.8650    1.0380  -24.6270 N   0  0  0  0  0  0  0  0  0  0  0  0
   -6.4210    3.7470  -22.4100 N   0  0  0  0  0  0  0  0  0  0  0  0
   -7.6050   -4.8760  -26.0880 C   0  0  0  0  0  0  0  0  0  0  0  0
   -7.9510    2.0150  -25.2730 C   0  0  0  0  0  0  0  0  0  0  0  0
   -8.6350   -3.4550  -24.4020 C   0  0  0  0  0  0  0  0  0  0  0  0
   -6.9960   -2.3910  -22.5100 C   0  0  0  0  0  0  0  0  0  0  0  0
   -8.3210   -0.3190  -24.4220 C   0  0  0  0  0  0  0  0  0  0  0  0
   -8.4150   -2.5600  -23.1250 C   0  0  0  0  0  0  0  0  0  0  0  0
   -8.9540   -1.0810  -23.2150 C   0  0  0  0  0  0  0  0  0  0  0  0
   -4.4460    3.9620  -23.0220 H   0  0  0  0  0  0  0  0  0  0  0  0
   -4.9840    2.7820  -25.2550 H   0  0  0  0  0  0  0  0  0  0  0  0
   -7.6620   -1.6210  -19.0270 H   0  0  0  0  0  0  0  0  0  0  0  0
  -14.3770   -0.3380  -23.1660 H   0  0  0  0  0  0  0  0  0  0  0  0
  -12.9000    1.3960  -24.0830 H   0  0  0  0  0  0  0  0  0  0  0  0
  -11.0000   -2.7510  -22.1530 H   0  0  0  0  0  0  0  0  0  0  0  0
   -1.8270    1.9740  -21.0720 H   0  0  0  0  0  0  0  0  0  0  0  0
   -3.0060    1.1430  -23.0970 H   0  0  0  0  0  0  0  0  0  0  0  0
   -4.5400    0.5390  -17.3960 H   0  0  0  0  0  0  0  0  0  0  0  0
   -2.7580    1.5360  -18.8180 H   0  0  0  0  0  0  0  0  0  0  0  0
   -5.0820   -0.1700  -22.8640 H   0  0  0  0  0  0  0  0  0  0  0  0
   -8.4180    3.1600  -22.5880 H   0  0  0  0  0  0  0  0  0  0  0  0
   -8.6590   -5.1090  -26.2750 H   0  0  0  0  0  0  0  0  0  0  0  0
   -7.2350   -4.2950  -26.9400 H   0  0  0  0  0  0  0  0  0  0  0  0
   -7.0570   -5.8270  -26.0720 H   0  0  0  0  0  0  0  0  0  0  0  0
   -8.5460    2.7950  -25.7680 H   0  0  0  0  0  0  0  0  0  0  0  0
   -7.3830    1.4980  -26.0580 H   0  0  0  0  0  0  0  0  0  0  0  0
   -9.3910   -4.2070  -24.1460 H   0  0  0  0  0  0  0  0  0  0  0  0
   -9.0480   -2.8560  -25.2210 H   0  0  0  0  0  0  0  0  0  0  0  0
   -6.2540   -2.1840  -23.2900 H   0  0  0  0  0  0  0  0  0  0  0  0
   -6.6830   -3.2700  -21.9300 H   0  0  0  0  0  0  0  0  0  0  0  0
   -7.2400   -0.2360  -24.2630 H   0  0  0  0  0  0  0  0  0  0  0  0
   -8.4550   -0.8790  -25.3490 H   0  0  0  0  0  0  0  0  0  0  0  0
   -8.9410   -3.0630  -22.3090 H   0  0  0  0  0  0  0  0  0  0  0  0
  7  2  2  0
  8  3  2  0
  9  5  1  0
 10  4  2  0
 12 11  1  0
 15 14  1  0
 16  1  1  0
 16 11  2  0
 16 13  1  0
 17  7  1  0
 17 12  2  0
 18  9  2  0
 19 13  2  0
 19 17  1  0
 20  4  1  0
 21 14  2  0
 22 15  2  0
 23 10  1  0
 24 18  1  0
 25 20  2  0
 25 21  1  0
 26 22  1  0
 26 23  2  0
 26 25  1  0
 27  8  1  0
 27 23  1  0
 28  7  1  0
 29  5  1  0
 29 24  2  0
 30  6  1  0
 31 18  1  0
 31 28  1  0
 32  6  1  0
 33 27  1  0
 34 28  1  0
 35 32  1  0
 35 33  1  0
 36  8  1  0
 36 19  1  0
 36 34  1  0
 36 35  1  0
  5 37  1  0
  9 38  1  0
 10 39  1  0
 11 40  1  0
 12 41  1  0
 13 42  1  0
 14 43  1  0
 15 44  1  0
 20 45  1  0
 21 46  1  0
 22 47  1  0
 24 48  1  0
 30 49  1  0
 30 50  1  0
 30 51  1  0
 31 52  1  0
 31 53  1  0
 32 54  1  0
 32 55  1  0
 33 56  1  0
 33 57  1  0
 34 58  1  0
 34 59  1  0
 35 60  1  0
M  END
>  <Favorite_cresset>
false

>  <Protein_cresset>
sars_P

>  <MW_cresset>
502.0

>  <#Atoms_cresset>
36

>  <SlogP_cresset>
3.8

>  <TPSA_cresset>
91.4

>  <Flexibility_cresset>
4.9

>  <HBA_cresset>
8

>  <HBD_cresset>
1

>  <Rof5_cresset>
1

>  <Confs_cresset>
0

>  <Poses_cresset>
0

$$$$
predicted (93)
  xed2sdf           3D
 
 62 67  0  0  1  0  0  0  0  0999 V2000
  -10.7140    2.4540  -24.4960 O   0  0  0  0  0  0  0  0  0  0  0  0
   -8.6920    0.5850  -21.4260 O   0  0  0  0  0  0  0  0  0  0  0  0
   -6.1460   -0.4840  -18.0440 N   0  0  0  0  0  0  0  0  0  0  0  0
   -5.3820    3.9410  -23.2900 N   0  0  0  0  0  0  0  0  0  0  0  0
  -10.2070    1.3560  -24.3130 C   0  0  0  0  0  0  0  0  0  0  0  0
   -8.2550   -0.4060  -21.9770 C   0  0  0  0  0  0  0  0  0  0  0  0
   -6.3000    3.7250  -22.3600 C   0  0  0  0  0  0  0  0  0  0  0  0
   -6.8360   -0.9130  -19.1140 C   0  0  0  0  0  0  0  0  0  0  0  0
  -13.1980   -0.6920  -23.1170 C   0  0  0  0  0  0  0  0  0  0  0  0
  -12.4070    0.3350  -23.6470 C   0  0  0  0  0  0  0  0  0  0  0  0
  -11.1880   -1.9540  -22.6210 C   0  0  0  0  0  0  0  0  0  0  0  0
   -2.7100    1.2350  -21.0030 C   0  0  0  0  0  0  0  0  0  0  0  0
   -3.4200    0.7730  -22.1180 C   0  0  0  0  0  0  0  0  0  0  0  0
   -7.4340    3.0920  -22.9340 C   0  0  0  0  0  0  0  0  0  0  0  0
  -12.5820   -1.8340  -22.6070 C   0  0  0  0  0  0  0  0  0  0  0  0
  -11.0020    0.2140  -23.7190 C   0  0  0  0  0  0  0  0  0  0  0  0
  -10.3720   -0.9500  -23.2100 C   0  0  0  0  0  0  0  0  0  0  0  0
   -4.9740    0.1470  -18.2510 C   0  0  0  0  0  0  0  0  0  0  0  0
   -3.2240    1.0470  -19.7100 C   0  0  0  0  0  0  0  0  0  0  0  0
   -4.6470    0.1250  -21.9480 C   0  0  0  0  0  0  0  0  0  0  0  0
   -6.3770   -0.7360  -20.4310 C   0  0  0  0  0  0  0  0  0  0  0  0
   -7.1590    2.8660  -24.2440 C   0  0  0  0  0  0  0  0  0  0  0  0
   -4.4380    0.3680  -19.5320 C   0  0  0  0  0  0  0  0  0  0  0  0
   -5.1510   -0.0880  -20.6500 C   0  0  0  0  0  0  0  0  0  0  0  0
   -7.1810   -1.1220  -21.5170 N   0  0  0  0  0  0  0  0  0  0  0  0
   -8.8780    1.1030  -24.6400 N   0  0  0  0  0  0  0  0  0  0  0  0
   -5.9210    3.4280  -24.4480 N   0  0  0  0  0  0  0  0  0  0  0  0
   -8.0270    2.1540  -25.2560 C   0  0  0  0  0  0  0  0  0  0  0  0
   -4.0750    2.4050  -25.7980 C   0  0  0  0  0  0  0  0  0  0  0  0
   -5.1920    3.4740  -25.7170 C   0  0  0  0  0  0  0  0  0  0  0  0
   -8.1370   -3.3260  -24.4330 C   0  0  0  0  0  0  0  0  0  0  0  0
   -6.9930   -2.3810  -22.2230 C   0  0  0  0  0  0  0  0  0  0  0  0
   -8.2560   -0.2340  -24.4750 C   0  0  0  0  0  0  0  0  0  0  0  0
   -8.2480   -2.5020  -23.1130 C   0  0  0  0  0  0  0  0  0  0  0  0
   -8.8300   -1.0390  -23.2410 C   0  0  0  0  0  0  0  0  0  0  0  0
  -13.3350   -2.8080  -22.0560 F   0  0  0  0  0  0  0  0  0  0  0  0
   -6.1140    4.0340  -21.3380 H   0  0  0  0  0  0  0  0  0  0  0  0
   -7.7890   -1.4030  -18.9090 H   0  0  0  0  0  0  0  0  0  0  0  0
  -14.2770   -0.5810  -23.0560 H   0  0  0  0  0  0  0  0  0  0  0  0
  -12.8940    1.2390  -24.0000 H   0  0  0  0  0  0  0  0  0  0  0  0
  -10.7810   -2.8350  -22.1460 H   0  0  0  0  0  0  0  0  0  0  0  0
   -1.7620    1.7450  -21.1380 H   0  0  0  0  0  0  0  0  0  0  0  0
   -3.0230    0.9190  -23.1170 H   0  0  0  0  0  0  0  0  0  0  0  0
   -8.3480    2.8290  -22.4240 H   0  0  0  0  0  0  0  0  0  0  0  0
   -4.4650    0.5000  -17.3620 H   0  0  0  0  0  0  0  0  0  0  0  0
   -2.6850    1.4270  -18.8530 H   0  0  0  0  0  0  0  0  0  0  0  0
   -5.1970   -0.2080  -22.8220 H   0  0  0  0  0  0  0  0  0  0  0  0
   -7.3900    1.6890  -26.0190 H   0  0  0  0  0  0  0  0  0  0  0  0
   -8.6390    2.9060  -25.7750 H   0  0  0  0  0  0  0  0  0  0  0  0
   -3.0840    2.8630  -25.7500 H   0  0  0  0  0  0  0  0  0  0  0  0
   -4.1300    1.8210  -26.7210 H   0  0  0  0  0  0  0  0  0  0  0  0
   -4.1370    1.6860  -24.9760 H   0  0  0  0  0  0  0  0  0  0  0  0
   -4.7910    4.4820  -25.8780 H   0  0  0  0  0  0  0  0  0  0  0  0
   -5.9160    3.3200  -26.5240 H   0  0  0  0  0  0  0  0  0  0  0  0
   -7.1060   -3.4740  -24.7660 H   0  0  0  0  0  0  0  0  0  0  0  0
   -8.6910   -2.8750  -25.2620 H   0  0  0  0  0  0  0  0  0  0  0  0
   -8.5840   -4.3170  -24.2940 H   0  0  0  0  0  0  0  0  0  0  0  0
   -6.0560   -2.3660  -22.7830 H   0  0  0  0  0  0  0  0  0  0  0  0
   -6.9450   -3.2040  -21.5020 H   0  0  0  0  0  0  0  0  0  0  0  0
   -7.1680   -0.1080  -24.3890 H   0  0  0  0  0  0  0  0  0  0  0  0
   -8.4150   -0.7760  -25.4140 H   0  0  0  0  0  0  0  0  0  0  0  0
   -8.8720   -3.1000  -22.4430 H   0  0  0  0  0  0  0  0  0  0  0  0
  5  1  2  0
  6  2  2  0
  7  4  2  0
  8  3  2  0
 10  9  1  0
 13 12  1  0
 14  7  1  0
 15  9  2  0
 15 11  1  0
 16  5  1  0
 16 10  2  0
 17 11  2  0
 17 16  1  0
 18  3  1  0
 19 12  2  0
 20 13  2  0
 21  8  1  0
 22 14  2  0
 23 18  2  0
 23 19  1  0
 24 20  1  0
 24 21  2  0
 24 23  1  0
 25  6  1  0
 25 21  1  0
 26  5  1  0
 27  4  1  0
 27 22  1  0
 28 22  1  0
 28 26  1  0
 30 27  1  0
 30 29  1  0
 32 25  1  0
 33 26  1  0
 34 31  1  0
 34 32  1  0
 35  6  1  0
 35 17  1  0
 35 33  1  0
 35 34  1  0
 36 15  1  0
  7 37  1  0
  8 38  1  0
  9 39  1  0
 10 40  1  0
 11 41  1  0
 12 42  1  0
 13 43  1  0
 14 44  1  0
 18 45  1  0
 19 46  1  0
 20 47  1  0
 28 48  1  0
 28 49  1  0
 29 50  1  0
 29 51  1  0
 29 52  1  0
 30 53  1  0
 30 54  1  0
 31 55  1  0
 31 56  1  0
 31 57  1  0
 32 58  1  0
 32 59  1  0
 33 60  1  0
 33 61  1  0
 34 62  1  0
M  END
>  <Favorite_cresset>
false

>  <Protein_cresset>
sars_P

>  <MW_cresset>
483.5

>  <#Atoms_cresset>
36

>  <SlogP_cresset>
4.4

>  <TPSA_cresset>
71.3

>  <Flexibility_cresset>
3.9

>  <HBA_cresset>
7

>  <HBD_cresset>
0

>  <Rof5_cresset>
0

>  <Confs_cresset>
0

>  <Poses_cresset>
0

$$$$
predicted (94)
  xed2sdf           3D
 
 49 50  0  0  1  0  0  0  0  0999 V2000
  -13.6470   -2.7140  -22.3310 Cl  0  0  0  0  0  0  0  0  0  0  0  0
   -8.3740    0.2530  -21.7090 O   0  0  0  0  0  0  0  0  0  0  0  0
   -4.6310   -3.3240  -19.2750 O   0  0  0  0  0  0  0  0  0  0  0  0
   -6.6330   -2.5510  -17.9670 O   0  0  0  0  0  0  0  0  0  0  0  0
  -13.5860    5.9240  -26.8310 O   0  0  0  0  0  0  0  0  0  0  0  0
  -13.7190    7.1090  -24.5900 O   0  0  0  0  0  0  0  0  0  0  0  0
   -6.1780   -1.6930  -20.2370 O   0  0  0  0  0  0  0  0  0  0  0  0
   -8.0060   -0.8900  -21.5010 C   0  0  0  0  0  0  0  0  0  0  0  0
  -11.0100    2.7540  -24.7420 C   0  0  0  0  0  0  0  0  0  0  0  0
  -12.9880    2.7590  -23.3430 C   0  0  0  0  0  0  0  0  0  0  0  0
  -12.6140   -0.2920  -23.0740 C   0  0  0  0  0  0  0  0  0  0  0  0
  -11.1060   -2.2140  -23.2330 C   0  0  0  0  0  0  0  0  0  0  0  0
  -10.3320    0.0120  -23.8010 C   0  0  0  0  0  0  0  0  0  0  0  0
  -11.3180    4.0430  -25.1950 C   0  0  0  0  0  0  0  0  0  0  0  0
  -13.2840    4.0680  -23.7840 C   0  0  0  0  0  0  0  0  0  0  0  0
  -12.3690   -1.6710  -22.9350 C   0  0  0  0  0  0  0  0  0  0  0  0
  -11.8540    2.0530  -23.8380 C   0  0  0  0  0  0  0  0  0  0  0  0
  -11.6020    0.5890  -23.5410 C   0  0  0  0  0  0  0  0  0  0  0  0
  -10.0670   -1.3600  -23.6460 C   0  0  0  0  0  0  0  0  0  0  0  0
  -12.4700    4.7010  -24.7460 C   0  0  0  0  0  0  0  0  0  0  0  0
   -7.9920   -1.8930  -22.4510 N   0  0  0  0  0  0  0  0  0  0  0  0
   -4.7140   -0.9470  -18.3140 N   0  0  0  0  0  0  0  0  0  0  0  0
  -11.5280    7.0690  -25.9320 N   0  0  0  0  0  0  0  0  0  0  0  0
   -7.5510   -1.3490  -20.1420 C   0  0  0  0  0  0  0  0  0  0  0  0
   -4.5070    0.3440  -19.0150 C   0  0  0  0  0  0  0  0  0  0  0  0
   -8.3820   -3.1900  -24.4540 C   0  0  0  0  0  0  0  0  0  0  0  0
   -8.6080   -1.8250  -23.7650 C   0  0  0  0  0  0  0  0  0  0  0  0
   -5.5540   -2.2860  -18.8870 S   0  0  0  0  0  0  0  0  0  0  0  0
  -12.9850    6.2730  -25.5440 S   0  0  0  0  0  0  0  0  0  0  0  0
  -10.1510    2.2710  -25.1960 H   0  0  0  0  0  0  0  0  0  0  0  0
  -13.6760    2.2770  -22.6540 H   0  0  0  0  0  0  0  0  0  0  0  0
  -13.6070    0.0760  -22.8370 H   0  0  0  0  0  0  0  0  0  0  0  0
  -10.9340   -3.2800  -23.1060 H   0  0  0  0  0  0  0  0  0  0  0  0
   -9.5010    0.6420  -24.0920 H   0  0  0  0  0  0  0  0  0  0  0  0
  -10.6880    4.4990  -25.9530 H   0  0  0  0  0  0  0  0  0  0  0  0
  -14.1840    4.5610  -23.4310 H   0  0  0  0  0  0  0  0  0  0  0  0
   -7.5880   -2.7840  -22.1880 H   0  0  0  0  0  0  0  0  0  0  0  0
   -3.9060   -1.2330  -17.7600 H   0  0  0  0  0  0  0  0  0  0  0  0
  -10.8580    7.0190  -25.1670 H   0  0  0  0  0  0  0  0  0  0  0  0
  -11.7210    8.0520  -26.1400 H   0  0  0  0  0  0  0  0  0  0  0  0
   -7.6800   -0.5470  -19.4070 H   0  0  0  0  0  0  0  0  0  0  0  0
   -8.1610   -2.2190  -19.8540 H   0  0  0  0  0  0  0  0  0  0  0  0
   -3.4800    0.4680  -19.3930 H   0  0  0  0  0  0  0  0  0  0  0  0
   -5.2070    0.4520  -19.8430 H   0  0  0  0  0  0  0  0  0  0  0  0
   -4.6980    1.1720  -18.3230 H   0  0  0  0  0  0  0  0  0  0  0  0
   -7.3070   -3.4110  -24.4760 H   0  0  0  0  0  0  0  0  0  0  0  0
   -8.7460   -3.2040  -25.4860 H   0  0  0  0  0  0  0  0  0  0  0  0
   -8.8570   -4.0090  -23.9030 H   0  0  0  0  0  0  0  0  0  0  0  0
   -8.0460   -1.0700  -24.3290 H   0  0  0  0  0  0  0  0  0  0  0  0
  8  2  2  0
 14  9  2  0
 15 10  1  0
 16  1  1  0
 16 11  1  0
 16 12  2  0
 17  9  1  0
 17 10  2  0
 18 11  2  0
 18 13  1  0
 18 17  1  0
 19 12  1  0
 19 13  2  0
 20 14  1  0
 20 15  2  0
 21  8  1  0
 24  7  1  0
 24  8  1  0
 25 22  1  0
 27 19  1  0
 27 21  1  0
 27 26  1  0
 28  3  2  0
 28  4  2  0
 28  7  1  0
 28 22  1  0
 29  5  2  0
 29  6  2  0
 29 20  1  0
 29 23  1  0
  9 30  1  0
 10 31  1  0
 11 32  1  0
 12 33  1  0
 13 34  1  0
 14 35  1  0
 15 36  1  0
 21 37  1  0
 22 38  1  0
 23 39  1  0
 23 40  1  0
 24 41  1  0
 24 42  1  0
 25 43  1  0
 25 44  1  0
 25 45  1  0
 26 46  1  0
 26 47  1  0
 26 48  1  0
 27 49  1  0
M  END
>  <Favorite_cresset>
false

>  <Protein_cresset>
sars_P

>  <MW_cresset>
461.9

>  <#Atoms_cresset>
29

>  <SlogP_cresset>
1.3

>  <TPSA_cresset>
144.7

>  <Flexibility_cresset>
6.7

>  <HBA_cresset>
9

>  <HBD_cresset>
4

>  <Rof5_cresset>
0

>  <Confs_cresset>
0

>  <Poses_cresset>
0

$$$$
predicted (95)
  xed2sdf           3D
 
 66 71  0  0  1  0  0  0  0  0999 V2000
  -13.8400   -2.9420  -21.7820 Cl  0  0  0  0  0  0  0  0  0  0  0  0
  -10.9180    2.5350  -24.3870 O   0  0  0  0  0  0  0  0  0  0  0  0
   -5.8090    2.4090  -24.7830 O   0  0  0  0  0  0  0  0  0  0  0  0
   -8.6890    0.6620  -21.3820 O   0  0  0  0  0  0  0  0  0  0  0  0
   -7.4900   -6.4330  -28.1850 N   0  0  0  0  0  0  0  0  0  0  0  0
   -8.3820   -4.8070  -26.6650 N   0  0  0  0  0  0  0  0  0  0  0  0
   -6.1650   -0.6520  -18.0320 N   0  0  0  0  0  0  0  0  0  0  0  0
  -10.3990    1.4480  -24.1830 C   0  0  0  0  0  0  0  0  0  0  0  0
   -6.9400    2.6260  -24.3800 C   0  0  0  0  0  0  0  0  0  0  0  0
   -8.3440   -0.3710  -21.9160 C   0  0  0  0  0  0  0  0  0  0  0  0
   -8.3560   -5.4640  -27.8390 C   0  0  0  0  0  0  0  0  0  0  0  0
   -6.5760   -6.7800  -27.2500 C   0  0  0  0  0  0  0  0  0  0  0  0
   -6.8300   -1.0830  -19.1200 C   0  0  0  0  0  0  0  0  0  0  0  0
   -7.4790   -5.1590  -25.7160 C   0  0  0  0  0  0  0  0  0  0  0  0
   -6.5400   -6.1760  -25.9730 C   0  0  0  0  0  0  0  0  0  0  0  0
  -13.4310   -0.6030  -23.1100 C   0  0  0  0  0  0  0  0  0  0  0  0
  -12.6230    0.4120  -23.6230 C   0  0  0  0  0  0  0  0  0  0  0  0
  -11.4420   -1.8650  -22.5330 C   0  0  0  0  0  0  0  0  0  0  0  0
   -2.8460    1.4080  -20.8950 C   0  0  0  0  0  0  0  0  0  0  0  0
   -3.5500    0.9770  -22.0300 C   0  0  0  0  0  0  0  0  0  0  0  0
  -12.8380   -1.7260  -22.5390 C   0  0  0  0  0  0  0  0  0  0  0  0
  -11.2100    0.2980  -23.6200 C   0  0  0  0  0  0  0  0  0  0  0  0
  -10.5930   -0.8700  -23.0870 C   0  0  0  0  0  0  0  0  0  0  0  0
   -5.0400    0.0660  -18.2030 C   0  0  0  0  0  0  0  0  0  0  0  0
   -3.3410    1.1200  -19.6130 C   0  0  0  0  0  0  0  0  0  0  0  0
   -4.7390    0.2470  -21.8960 C   0  0  0  0  0  0  0  0  0  0  0  0
   -6.4100   -0.7990  -20.4290 C   0  0  0  0  0  0  0  0  0  0  0  0
   -4.5180    0.3650  -19.4720 C   0  0  0  0  0  0  0  0  0  0  0  0
   -5.2170   -0.0770  -20.6130 C   0  0  0  0  0  0  0  0  0  0  0  0
   -7.2030    3.2860  -23.1900 N   0  0  0  0  0  0  0  0  0  0  0  0
   -7.5350   -4.4490  -24.5040 N   0  0  0  0  0  0  0  0  0  0  0  0
   -7.2530   -1.1180  -21.5180 N   0  0  0  0  0  0  0  0  0  0  0  0
   -9.0490    1.2030  -24.4540 N   0  0  0  0  0  0  0  0  0  0  0  0
   -6.1940    3.8670  -22.2850 C   0  0  0  0  0  0  0  0  0  0  0  0
   -8.1950    2.2040  -25.1750 C   0  0  0  0  0  0  0  0  0  0  0  0
   -8.2890   -3.1730  -24.4310 C   0  0  0  0  0  0  0  0  0  0  0  0
   -7.0810   -2.3180  -22.3220 C   0  0  0  0  0  0  0  0  0  0  0  0
   -8.4840   -0.1650  -24.3490 C   0  0  0  0  0  0  0  0  0  0  0  0
   -8.4200   -2.4740  -23.0560 C   0  0  0  0  0  0  0  0  0  0  0  0
   -9.0300   -0.9960  -23.1310 C   0  0  0  0  0  0  0  0  0  0  0  0
   -9.0980   -5.1620  -28.5850 H   0  0  0  0  0  0  0  0  0  0  0  0
   -5.8480   -7.5320  -27.5450 H   0  0  0  0  0  0  0  0  0  0  0  0
   -7.7460   -1.6410  -18.9330 H   0  0  0  0  0  0  0  0  0  0  0  0
   -5.7840   -6.4580  -25.2470 H   0  0  0  0  0  0  0  0  0  0  0  0
  -14.5130   -0.5140  -23.1240 H   0  0  0  0  0  0  0  0  0  0  0  0
  -13.1160    1.2890  -24.0320 H   0  0  0  0  0  0  0  0  0  0  0  0
  -11.0470   -2.7620  -22.0780 H   0  0  0  0  0  0  0  0  0  0  0  0
   -1.9280    1.9780  -21.0110 H   0  0  0  0  0  0  0  0  0  0  0  0
   -3.1810    1.2220  -23.0200 H   0  0  0  0  0  0  0  0  0  0  0  0
   -4.5580    0.4250  -17.2970 H   0  0  0  0  0  0  0  0  0  0  0  0
   -2.8160    1.4890  -18.7400 H   0  0  0  0  0  0  0  0  0  0  0  0
   -5.2800   -0.0580  -22.7880 H   0  0  0  0  0  0  0  0  0  0  0  0
   -8.1740    3.4330  -22.9540 H   0  0  0  0  0  0  0  0  0  0  0  0
   -7.0460   -4.8060  -23.6910 H   0  0  0  0  0  0  0  0  0  0  0  0
   -5.2310    4.0050  -22.7960 H   0  0  0  0  0  0  0  0  0  0  0  0
   -6.0390    3.1870  -21.4400 H   0  0  0  0  0  0  0  0  0  0  0  0
   -6.5590    4.8390  -21.9210 H   0  0  0  0  0  0  0  0  0  0  0  0
   -7.8780    1.8050  -26.1480 H   0  0  0  0  0  0  0  0  0  0  0  0
   -8.7690    3.1190  -25.3580 H   0  0  0  0  0  0  0  0  0  0  0  0
   -9.3150   -3.3800  -24.7400 H   0  0  0  0  0  0  0  0  0  0  0  0
   -7.8170   -2.4860  -25.1390 H   0  0  0  0  0  0  0  0  0  0  0  0
   -6.2830   -2.1570  -23.0510 H   0  0  0  0  0  0  0  0  0  0  0  0
   -6.8320   -3.1930  -21.7120 H   0  0  0  0  0  0  0  0  0  0  0  0
   -7.3880   -0.0970  -24.2580 H   0  0  0  0  0  0  0  0  0  0  0  0
   -8.7250   -0.6690  -25.2910 H   0  0  0  0  0  0  0  0  0  0  0  0
   -9.0330   -3.1010  -22.4010 H   0  0  0  0  0  0  0  0  0  0  0  0
  8  2  2  0
  9  3  2  0
 10  4  2  0
 11  5  2  0
 11  6  1  0
 12  5  1  0
 13  7  2  0
 14  6  2  0
 15 12  2  0
 15 14  1  0
 17 16  1  0
 20 19  1  0
 21  1  1  0
 21 16  2  0
 21 18  1  0
 22  8  1  0
 22 17  2  0
 23 18  2  0
 23 22  1  0
 24  7  1  0
 25 19  2  0
 26 20  2  0
 27 13  1  0
 28 24  2  0
 28 25  1  0
 29 26  1  0
 29 27  2  0
 29 28  1  0
 30  9  1  0
 31 14  1  0
 32 10  1  0
 32 27  1  0
 33  8  1  0
 34 30  1  0
 35  9  1  0
 35 33  1  0
 36 31  1  0
 37 32  1  0
 38 33  1  0
 39 36  1  0
 39 37  1  0
 40 10  1  0
 40 23  1  0
 40 38  1  0
 40 39  1  0
 11 41  1  0
 12 42  1  0
 13 43  1  0
 15 44  1  0
 16 45  1  0
 17 46  1  0
 18 47  1  0
 19 48  1  0
 20 49  1  0
 24 50  1  0
 25 51  1  0
 26 52  1  0
 30 53  1  0
 31 54  1  0
 34 55  1  0
 34 56  1  0
 34 57  1  0
 35 58  1  0
 35 59  1  0
 36 60  1  0
 36 61  1  0
 37 62  1  0
 37 63  1  0
 38 64  1  0
 38 65  1  0
 39 66  1  0
M  END
>  <Favorite_cresset>
false

>  <Protein_cresset>
sars_P

>  <MW_cresset>
556.0

>  <#Atoms_cresset>
40

>  <SlogP_cresset>
2.9

>  <TPSA_cresset>
120.4

>  <Flexibility_cresset>
5.1

>  <HBA_cresset>
10

>  <HBD_cresset>
2

>  <Rof5_cresset>
1

>  <Confs_cresset>
0

>  <Poses_cresset>
0

$$$$
predicted (96)
  xed2sdf           3D
 
 66 70  0  0  1  0  0  0  0  0999 V2000
  -13.6200   -2.9490  -21.7690 Cl  0  0  0  0  0  0  0  0  0  0  0  0
  -10.6770    2.5060  -24.4350 O   0  0  0  0  0  0  0  0  0  0  0  0
   -5.5470    2.0990  -24.5480 O   0  0  0  0  0  0  0  0  0  0  0  0
   -8.5130    0.6130  -21.3760 O   0  0  0  0  0  0  0  0  0  0  0  0
   -6.0640   -0.5730  -18.0090 N   0  0  0  0  0  0  0  0  0  0  0  0
   -7.8150   -4.4720  -24.5440 O   0  0  0  0  0  0  0  0  0  0  0  0
  -10.1620    1.4190  -24.2240 C   0  0  0  0  0  0  0  0  0  0  0  0
   -6.6620    2.4910  -24.2400 C   0  0  0  0  0  0  0  0  0  0  0  0
   -8.1480   -0.4090  -21.9250 C   0  0  0  0  0  0  0  0  0  0  0  0
   -6.7180   -1.0350  -19.0970 C   0  0  0  0  0  0  0  0  0  0  0  0
  -13.1870   -0.6360  -23.0850 C   0  0  0  0  0  0  0  0  0  0  0  0
  -12.3900    0.3820  -23.6130 C   0  0  0  0  0  0  0  0  0  0  0  0
  -11.1790   -1.8880  -22.5240 C   0  0  0  0  0  0  0  0  0  0  0  0
   -2.6490    1.2900  -20.9030 C   0  0  0  0  0  0  0  0  0  0  0  0
   -3.3300    0.8130  -22.0290 C   0  0  0  0  0  0  0  0  0  0  0  0
  -12.5840   -1.7570  -22.5210 C   0  0  0  0  0  0  0  0  0  0  0  0
  -10.9760    0.2690  -23.6500 C   0  0  0  0  0  0  0  0  0  0  0  0
  -10.3470   -0.8960  -23.1250 C   0  0  0  0  0  0  0  0  0  0  0  0
   -4.9160    0.1070  -18.1910 C   0  0  0  0  0  0  0  0  0  0  0  0
   -3.1770    1.0780  -19.6210 C   0  0  0  0  0  0  0  0  0  0  0  0
   -4.5340    0.1140  -21.8860 C   0  0  0  0  0  0  0  0  0  0  0  0
   -6.2540   -0.8370  -20.4070 C   0  0  0  0  0  0  0  0  0  0  0  0
   -4.3650    0.3440  -19.4640 C   0  0  0  0  0  0  0  0  0  0  0  0
   -5.0470   -0.1430  -20.6000 C   0  0  0  0  0  0  0  0  0  0  0  0
   -6.9150    3.2100  -23.0880 N   0  0  0  0  0  0  0  0  0  0  0  0
   -7.0870   -1.1800  -21.5010 N   0  0  0  0  0  0  0  0  0  0  0  0
   -8.8050    1.1790  -24.4650 N   0  0  0  0  0  0  0  0  0  0  0  0
   -5.8990    3.6380  -22.1180 C   0  0  0  0  0  0  0  0  0  0  0  0
   -7.9090    2.2000  -25.0970 C   0  0  0  0  0  0  0  0  0  0  0  0
   -8.1780   -6.6850  -25.4600 C   0  0  0  0  0  0  0  0  0  0  0  0
   -7.7840   -4.6640  -26.9740 C   0  0  0  0  0  0  0  0  0  0  0  0
   -8.4130   -5.1720  -25.6600 C   0  0  0  0  0  0  0  0  0  0  0  0
   -7.9920   -3.0440  -24.5720 C   0  0  0  0  0  0  0  0  0  0  0  0
   -6.9080   -2.3970  -22.2880 C   0  0  0  0  0  0  0  0  0  0  0  0
   -8.2510   -0.1850  -24.3890 C   0  0  0  0  0  0  0  0  0  0  0  0
   -8.1970   -2.4750  -23.1520 C   0  0  0  0  0  0  0  0  0  0  0  0
   -8.7900   -1.0050  -23.1720 C   0  0  0  0  0  0  0  0  0  0  0  0
   -7.6640   -1.5430  -18.9210 H   0  0  0  0  0  0  0  0  0  0  0  0
  -14.2720   -0.5400  -23.0930 H   0  0  0  0  0  0  0  0  0  0  0  0
  -12.8890    1.2640  -24.0050 H   0  0  0  0  0  0  0  0  0  0  0  0
  -10.7660   -2.7590  -22.0280 H   0  0  0  0  0  0  0  0  0  0  0  0
   -1.7180    1.8390  -21.0300 H   0  0  0  0  0  0  0  0  0  0  0  0
   -2.9350    0.9980  -23.0220 H   0  0  0  0  0  0  0  0  0  0  0  0
   -4.4450    0.4910  -17.2900 H   0  0  0  0  0  0  0  0  0  0  0  0
   -2.6690    1.4880  -18.7590 H   0  0  0  0  0  0  0  0  0  0  0  0
   -5.0610   -0.2170  -22.7770 H   0  0  0  0  0  0  0  0  0  0  0  0
   -7.8720    3.4950  -22.9230 H   0  0  0  0  0  0  0  0  0  0  0  0
   -4.8970    3.6360  -22.5610 H   0  0  0  0  0  0  0  0  0  0  0  0
   -5.9030    2.9520  -21.2660 H   0  0  0  0  0  0  0  0  0  0  0  0
   -6.1400    4.6510  -21.7720 H   0  0  0  0  0  0  0  0  0  0  0  0
   -7.5770    1.8570  -26.0840 H   0  0  0  0  0  0  0  0  0  0  0  0
   -8.4460    3.1470  -25.2360 H   0  0  0  0  0  0  0  0  0  0  0  0
   -7.1050   -6.9180  -25.4380 H   0  0  0  0  0  0  0  0  0  0  0  0
   -8.6270   -7.0260  -24.5200 H   0  0  0  0  0  0  0  0  0  0  0  0
   -8.6360   -7.2620  -26.2750 H   0  0  0  0  0  0  0  0  0  0  0  0
   -6.6930   -4.6700  -26.9090 H   0  0  0  0  0  0  0  0  0  0  0  0
   -8.0770   -5.2740  -27.8290 H   0  0  0  0  0  0  0  0  0  0  0  0
   -8.1080   -3.6440  -27.1920 H   0  0  0  0  0  0  0  0  0  0  0  0
   -9.4910   -4.9800  -25.6710 H   0  0  0  0  0  0  0  0  0  0  0  0
   -8.9050   -2.8230  -25.1380 H   0  0  0  0  0  0  0  0  0  0  0  0
   -7.1300   -2.5580  -25.0540 H   0  0  0  0  0  0  0  0  0  0  0  0
   -6.0080   -2.2990  -22.9150 H   0  0  0  0  0  0  0  0  0  0  0  0
   -6.8000   -3.2660  -21.6230 H   0  0  0  0  0  0  0  0  0  0  0  0
   -7.1560   -0.1300  -24.3120 H   0  0  0  0  0  0  0  0  0  0  0  0
   -8.5220   -0.6810  -25.3300 H   0  0  0  0  0  0  0  0  0  0  0  0
   -8.8770   -3.1480  -22.6220 H   0  0  0  0  0  0  0  0  0  0  0  0
  7  2  2  0
  8  3  2  0
  9  4  2  0
 10  5  2  0
 12 11  1  0
 15 14  1  0
 16  1  1  0
 16 11  2  0
 16 13  1  0
 17  7  1  0
 17 12  2  0
 18 13  2  0
 18 17  1  0
 19  5  1  0
 20 14  2  0
 21 15  2  0
 22 10  1  0
 23 19  2  0
 23 20  1  0
 24 21  1  0
 24 22  2  0
 24 23  1  0
 25  8  1  0
 26  9  1  0
 26 22  1  0
 27  7  1  0
 28 25  1  0
 29  8  1  0
 29 27  1  0
 32  6  1  0
 32 30  1  0
 32 31  1  0
 33  6  1  0
 34 26  1  0
 35 27  1  0
 36 33  1  0
 36 34  1  0
 37  9  1  0
 37 18  1  0
 37 35  1  0
 37 36  1  0
 10 38  1  0
 11 39  1  0
 12 40  1  0
 13 41  1  0
 14 42  1  0
 15 43  1  0
 19 44  1  0
 20 45  1  0
 21 46  1  0
 25 47  1  0
 28 48  1  0
 28 49  1  0
 28 50  1  0
 29 51  1  0
 29 52  1  0
 30 53  1  0
 30 54  1  0
 30 55  1  0
 31 56  1  0
 31 57  1  0
 31 58  1  0
 32 59  1  0
 33 60  1  0
 33 61  1  0
 34 62  1  0
 34 63  1  0
 35 64  1  0
 35 65  1  0
 36 66  1  0
M  END
>  <Favorite_cresset>
false

>  <Protein_cresset>
sars_P

>  <MW_cresset>
521.0

>  <#Atoms_cresset>
37

>  <SlogP_cresset>
3.4

>  <TPSA_cresset>
91.8

>  <Flexibility_cresset>
5.9

>  <HBA_cresset>
8

>  <HBD_cresset>
1

>  <Rof5_cresset>
1

>  <Confs_cresset>
0

>  <Poses_cresset>
0

$$$$
predicted (97)
  xed2sdf           3D
 
 40 43  0  0  1  0  0  0  0  0999 V2000
    6.3400   -3.4780   21.6950 O   0  0  0  0  0  0  0  0  0  0  0  0
    8.9750    0.2360   21.5060 O   0  0  0  0  0  0  0  0  0  0  0  0
    6.4390   -0.4140   17.9540 N   0  0  0  0  0  0  0  0  0  0  0  0
    9.9720   -1.2690   25.3330 O   0  0  0  0  0  0  0  0  0  0  0  0
    7.2440   -2.7040   21.9530 C   0  0  0  0  0  0  0  0  0  0  0  0
    8.5740   -0.8600   21.8680 C   0  0  0  0  0  0  0  0  0  0  0  0
    7.1270   -0.9890   18.9620 C   0  0  0  0  0  0  0  0  0  0  0  0
    3.0290    0.9900   21.0400 C   0  0  0  0  0  0  0  0  0  0  0  0
    3.7550    0.4560   22.1120 C   0  0  0  0  0  0  0  0  0  0  0  0
    5.2610    0.1730   18.2090 C   0  0  0  0  0  0  0  0  0  0  0  0
    3.5200    0.8840   19.7370 C   0  0  0  0  0  0  0  0  0  0  0  0
    4.9720   -0.1950   21.8840 C   0  0  0  0  0  0  0  0  0  0  0  0
    6.6890   -0.9610   20.2910 C   0  0  0  0  0  0  0  0  0  0  0  0
    4.7380    0.2420   19.5030 C   0  0  0  0  0  0  0  0  0  0  0  0
    5.4690   -0.3140   20.5740 C   0  0  0  0  0  0  0  0  0  0  0  0
    7.4990   -1.5150   21.3180 N   0  0  0  0  0  0  0  0  0  0  0  0
    8.1890   -2.8510   22.9480 N   0  0  0  0  0  0  0  0  0  0  0  0
    8.9660   -0.8960   24.3540 C   0  0  0  0  0  0  0  0  0  0  0  0
   13.0870   -2.2430   23.3400 C   0  0  0  0  0  0  0  0  0  0  0  0
   11.3420   -1.0990   24.8870 C   0  0  0  0  0  0  0  0  0  0  0  0
   10.6050   -2.1670   22.6860 C   0  0  0  0  0  0  0  0  0  0  0  0
    9.1380   -1.7150   23.0270 C   0  0  0  0  0  0  0  0  0  0  0  0
   11.6180   -2.2440   23.8730 C   0  0  0  0  0  0  0  0  0  0  0  0
    8.0550   -1.4920   18.6910 H   0  0  0  0  0  0  0  0  0  0  0  0
    2.0920    1.5010   21.2190 H   0  0  0  0  0  0  0  0  0  0  0  0
    3.3770    0.5540   23.1210 H   0  0  0  0  0  0  0  0  0  0  0  0
    4.7310    0.6040   17.3580 H   0  0  0  0  0  0  0  0  0  0  0  0
    2.9660    1.3070   18.9090 H   0  0  0  0  0  0  0  0  0  0  0  0
    5.5270   -0.5860   22.7310 H   0  0  0  0  0  0  0  0  0  0  0  0
    8.2460   -3.6820   23.5220 H   0  0  0  0  0  0  0  0  0  0  0  0
    7.9600   -1.1050   24.7500 H   0  0  0  0  0  0  0  0  0  0  0  0
    9.0110    0.1860   24.1460 H   0  0  0  0  0  0  0  0  0  0  0  0
   13.7930   -1.8540   24.0830 H   0  0  0  0  0  0  0  0  0  0  0  0
   13.1690   -1.6100   22.4490 H   0  0  0  0  0  0  0  0  0  0  0  0
   13.4290   -3.2500   23.0600 H   0  0  0  0  0  0  0  0  0  0  0  0
   11.4930   -0.1160   24.4050 H   0  0  0  0  0  0  0  0  0  0  0  0
   12.0260   -1.1930   25.7450 H   0  0  0  0  0  0  0  0  0  0  0  0
   10.5710   -3.1310   22.1500 H   0  0  0  0  0  0  0  0  0  0  0  0
   10.9980   -1.4260   21.9910 H   0  0  0  0  0  0  0  0  0  0  0  0
   11.4630   -3.1910   24.4080 H   0  0  0  0  0  0  0  0  0  0  0  0
  5  1  2  0
  6  2  2  0
  7  3  2  0
  9  8  1  0
 10  3  1  0
 11  8  2  0
 12  9  2  0
 13  7  1  0
 14 10  2  0
 14 11  1  0
 15 12  1  0
 15 13  2  0
 15 14  1  0
 16  5  1  0
 16  6  1  0
 16 13  1  0
 17  5  1  0
 18  4  1  0
 20  4  1  0
 22  6  1  0
 22 17  1  0
 22 18  1  0
 22 21  1  0
 23 19  1  0
 23 20  1  0
 23 21  1  0
  7 24  1  0
  8 25  1  0
  9 26  1  0
 10 27  1  0
 11 28  1  0
 12 29  1  0
 17 30  1  0
 18 31  1  0
 18 32  1  0
 19 33  1  0
 19 34  1  0
 19 35  1  0
 20 36  1  0
 20 37  1  0
 21 38  1  0
 21 39  1  0
 23 40  1  0
M  END
>  <Favorite_cresset>
false

>  <Protein_cresset>
sars_P

>  <MW_cresset>
311.3

>  <#Atoms_cresset>
23

>  <SlogP_cresset>
2.1

>  <TPSA_cresset>
71.5

>  <Flexibility_cresset>
1.3

>  <HBA_cresset>
6

>  <HBD_cresset>
1

>  <Rof5_cresset>
0

>  <Confs_cresset>
0

>  <Poses_cresset>
0

$$$$
